* File: DFFD1.cdl.pex
* Created: Wed Dec 24 17:09:55 2025
* Program "Calibre xRC"
* Version "v2023.1_18.8"
* Nominal Temperature: 25C
* Circuit Temperature: 25C
* 
.subckt PM_DFFD1%CK 1 15 16 19 20 24 27 30 31 43 44
r28 51 53 0.466105
r29 49 51 0.699158
r30 46 49 0.466105
r31 31 44 0.459719
r32 30 31 0.459709
r33 27 44 0.0968625
r34 27 30 0.459709
r35 25 26 0.95447
r36 24 43 0.186466
r37 24 25 0.95447
r38 23 44 0.186466
r39 23 26 0.9545
r40 20 43 0.0968625
r41 20 43 0.544275
r42 19 43 0.0968625
r43 19 43 0.544275
r44 17 18 0.926928
r45 16 17 0.926928
r46 15 16 0.926928
r47 14 53 0.444444
r48 14 15 0.926928
r49 11 51 0.148148
r50 11 14 0.5904
r51 9 43 0.186466
r52 9 18 0.926928
r53 7 49 0.444444
r54 5 46 0.148148
r55 5 7 17.4047
r56 1 5 27.6299
.ends

.subckt PM_DFFD1%D 1 9 15 16 19 24 27 28 31 32 33 34 36 40 43 48 49 52 53 74 75
+ 76 77
r63 84 86 0.466105
r64 82 84 0.594284
r65 79 82 0.466105
r66 53 77 0.336713
r67 52 53 0.336713
r68 49 77 0.115592
r69 49 52 0.336713
r70 47 77 0.454644
r71 47 76 0.477664
r72 47 48 0.92988
r73 43 76 0.115592
r74 43 76 0.456638
r75 41 42 1.3052
r76 40 41 1.3052
r77 39 40 1.3052
r78 38 39 1.3052
r79 37 38 1.3052
r80 36 75 0.186466
r81 36 37 1.3052
r82 35 48 0.247405
r83 35 42 1.30526
r84 33 34 0.427422
r85 33 75 0.427422
r86 32 75 0.427431
r87 31 32 0.427422
r88 28 75 0.0968625
r89 28 31 0.427422
r90 27 75 0.0968625
r91 27 34 0.427431
r92 25 26 0.95447
r93 24 74 0.186466
r94 24 25 0.95447
r95 23 75 0.186466
r96 23 26 0.9545
r97 20 74 0.0968625
r98 20 74 0.544275
r99 19 74 0.0968625
r100 19 74 0.544275
r101 17 18 0.912168
r102 16 17 0.912168
r103 15 16 0.912168
r104 14 86 0.444444
r105 14 15 0.912168
r106 11 84 0.148148
r107 11 14 0.5904
r108 9 74 0.186466
r109 9 18 0.912168
r110 7 82 0.444444
r111 5 79 0.148148
r112 5 7 17.4047
r113 1 5 28.7177
.ends

.subckt PM_DFFD1%VSS 1 89 90 93 94 97 98 159 160 172 175 176 178 179 183 199 202
+ 203 205 206 212 213 223 224 236 239 240 242 243 247 263 266 267 269 270 323
+ 354 466 467 468 469 470 471 472 473 474 475 476 477 478 479 480 481 482 483
+ 485 487 489 491 493 495 497 506 508 510 517 521 529 538 567
r123 622 625 0.157491
r124 619 622 0.187163
r125 612 616 0.260471
r126 612 613 0.407432
r127 604 608 0.260471
r128 604 605 0.407432
r129 595 598 0.157491
r130 591 595 0.157491
r131 584 587 0.157491
r132 580 584 0.157491
r133 575 577 0.4428
r134 573 575 0.083025
r135 571 572 0.695007
r136 569 571 0.695007
r137 567 573 0.252522
r138 567 572 0.695015
r139 561 564 0.157491
r140 557 561 0.157491
r141 550 553 0.157491
r142 546 550 0.157491
r143 541 544 0.5904
r144 539 544 0.45018
r145 537 538 1.33659
r146 536 537 1.33659
r147 535 536 1.33659
r148 534 535 1.33659
r149 533 534 1.33659
r150 532 533 1.33659
r151 531 532 1.33659
r152 530 619 0.281483
r153 530 531 1.33659
r154 529 539 0.247405
r155 529 538 1.33667
r156 525 527 0.5904
r157 523 525 0.2952
r158 521 522 1.26936
r159 520 602 0.0487284
r160 520 521 1.26936
r161 519 622 0.281483
r162 519 522 1.26936
r163 518 613 1.26936
r164 517 518 1.26936
r165 516 601 0.0487284
r166 516 517 1.26936
r167 514 605 1.26936
r168 513 514 1.26936
r169 512 513 1.26936
r170 509 510 1.11192
r171 508 523 0.247405
r172 508 510 1.11193
r173 507 602 0.187502
r174 507 509 1.11192
r175 505 506 1.17096
r176 504 602 0.187502
r177 504 506 1.17097
r178 503 601 0.187502
r179 503 505 1.17096
r180 501 502 1.17096
r181 500 601 0.187502
r182 500 502 1.17097
r183 499 512 0.247405
r184 499 501 1.17096
r185 421 598 0.444444
r186 418 598 0.148148
r187 418 421 0.5904
r188 416 476 0.274104
r189 416 421 0.23616
r190 415 591 0.444444
r191 412 591 0.148148
r192 412 415 0.5904
r193 410 475 0.274104
r194 410 415 0.23616
r195 409 587 0.444444
r196 406 587 0.148148
r197 406 409 0.5904
r198 404 474 0.274104
r199 404 409 0.23616
r200 403 580 0.444444
r201 400 580 0.148148
r202 400 403 0.5904
r203 398 473 0.274104
r204 398 403 0.23616
r205 397 564 0.444444
r206 394 564 0.148148
r207 394 397 0.5904
r208 392 472 0.274104
r209 392 397 0.23616
r210 391 557 0.444444
r211 388 557 0.148148
r212 388 391 0.5904
r213 386 471 0.274104
r214 386 391 0.23616
r215 385 553 0.444444
r216 382 553 0.148148
r217 382 385 0.5904
r218 380 470 0.274104
r219 380 385 0.23616
r220 379 546 0.444444
r221 376 546 0.148148
r222 376 379 0.5904
r223 374 469 0.274104
r224 374 379 0.23616
r225 373 625 0.444444
r226 370 625 0.148148
r227 370 373 0.5904
r228 368 468 0.274104
r229 368 373 0.23616
r230 367 616 0.444444
r231 364 612 0.148148
r232 364 367 0.5904
r233 362 467 0.274104
r234 362 367 0.23616
r235 361 608 0.444444
r236 358 604 0.148148
r237 358 361 0.5904
r238 356 466 0.274104
r239 356 361 0.23616
r240 354 497 4.46423
r241 354 497 4.46423
r242 346 495 6.36358
r243 346 495 2.59358
r244 346 495 6.36358
r245 346 495 2.59358
r246 333 491 6.36358
r247 333 491 2.59358
r248 333 491 6.36358
r249 333 491 2.59358
r250 328 569 0.0740741
r251 325 328 4.2303
r252 323 489 4.46423
r253 323 489 4.46423
r254 315 487 6.36358
r255 315 487 2.59358
r256 315 487 6.36358
r257 315 487 2.59358
r258 302 483 6.36358
r259 302 483 2.59358
r260 302 483 6.36358
r261 302 483 2.59358
r262 292 482 12.0485
r263 289 481 12.0485
r264 286 480 9.32332
r265 269 270 5.61749
r266 269 497 5.61749
r267 267 497 5.61768
r268 266 267 5.61749
r269 263 497 3.26338
r270 263 266 5.61749
r271 262 354 3.42464
r272 262 270 5.61768
r273 260 261 29.0076
r274 260 495 29.0076
r275 255 497 12.63
r276 255 261 29.008
r277 253 595 0.444444
r278 253 495 7.64952
r279 250 251 24.2212
r280 249 595 0.148148
r281 249 253 17.4047
r282 249 251 24.2221
r283 247 493 12.63
r284 247 250 24.2212
r285 242 243 5.61749
r286 242 493 5.61749
r287 240 493 5.61768
r288 239 240 5.61749
r289 236 493 3.26338
r290 236 239 5.61749
r291 235 493 3.26338
r292 235 243 5.61768
r293 233 234 29.0076
r294 233 491 29.0076
r295 228 493 12.63
r296 228 234 29.008
r297 226 584 0.444444
r298 226 491 7.64952
r299 223 224 19.7978
r300 222 584 0.148148
r301 222 226 17.4047
r302 222 224 19.7978
r303 220 325 4.46977
r304 220 223 19.7978
r305 215 577 0.444444
r306 212 213 18.0741
r307 211 575 0.148148
r308 211 215 16.0658
r309 211 213 18.0741
r310 209 212 18.0741
r311 207 209 7.30856
r312 207 208 39.1605
r313 205 206 5.61749
r314 205 489 5.61749
r315 203 489 5.61768
r316 202 203 5.61749
r317 199 489 3.26338
r318 199 202 5.61749
r319 198 323 3.42464
r320 198 206 5.61768
r321 196 197 29.0076
r322 196 487 29.0076
r323 191 489 12.63
r324 191 197 29.008
r325 189 561 0.444444
r326 189 487 7.64952
r327 186 187 24.2212
r328 185 561 0.148148
r329 185 189 17.4047
r330 185 187 24.2221
r331 183 485 12.63
r332 183 186 24.2212
r333 178 179 5.61749
r334 178 485 5.61749
r335 176 485 5.61768
r336 175 176 5.61749
r337 172 485 3.26338
r338 172 175 5.61749
r339 171 485 3.26338
r340 171 179 5.61768
r341 169 170 29.0076
r342 169 483 29.0076
r343 164 485 12.63
r344 164 170 29.008
r345 162 550 0.444444
r346 162 483 7.64952
r347 159 160 18.1296
r348 158 550 0.148148
r349 158 162 17.4047
r350 158 160 18.1304
r351 156 159 18.1296
r352 151 544 0.444444
r353 149 541 0.148148
r354 149 151 17.4047
r355 147 156 7.29337
r356 147 149 3.26338
r357 98 480 6.52675
r358 98 480 8.85773
r359 97 480 3.34766
r360 97 480 8.85773
r361 94 482 6.52675
r362 94 482 15.6801
r363 93 482 3.49906
r364 93 482 15.6801
r365 90 481 6.52675
r366 90 481 15.6801
r367 89 481 3.49906
r368 89 481 15.6801
r369 88 292 30.3894
r370 87 88 30.389
r371 87 479 30.389
r372 82 289 30.3894
r373 81 82 30.389
r374 81 478 30.389
r375 76 286 15.5653
r376 75 76 15.5651
r377 75 477 15.5651
r378 69 608 0.444444
r379 69 477 4.03279
r380 67 604 0.148148
r381 67 69 8.70233
r382 61 622 0.444444
r383 61 479 7.91522
r384 58 622 0.148148
r385 58 61 17.4047
r386 53 616 0.444444
r387 53 478 7.91522
r388 50 612 0.148148
r389 50 53 17.4047
r390 45 46 43.4516
r391 44 45 43.4516
r392 43 44 43.4516
r393 42 43 43.4516
r394 41 42 43.4516
r395 40 41 43.4516
r396 39 40 43.4516
r397 38 39 43.4516
r398 37 38 43.4516
r399 36 37 43.4516
r400 35 36 43.4516
r401 34 35 43.4516
r402 33 34 43.4516
r403 32 33 43.4516
r404 31 32 43.4516
r405 30 31 43.4516
r406 29 30 43.4516
r407 28 29 43.4516
r408 27 28 43.4516
r409 26 27 43.4516
r410 25 26 43.4516
r411 24 25 43.4516
r412 23 24 43.4516
r413 22 23 43.4516
r414 21 22 43.4516
r415 20 21 43.4516
r416 19 20 43.4516
r417 17 18 25.2368
r418 15 527 0.444444
r419 15 17 25.2368
r420 12 525 0.148148
r421 12 15 17.4047
r422 10 208 7.29337
r423 10 46 43.4525
r424 1 19 43.4516
r425 1 18 25.2368
.ends

.subckt PM_DFFD1%net156 1 31 32 41 42 43
r16 57 58 0.252453
r17 52 54 0.305379
r18 50 57 0.0572586
r19 50 52 0.095431
r20 49 58 0.477394
r21 46 49 0.5535
r22 37 54 0.222222
r23 37 38 0.0744531
r24 32 41 0.501231
r25 31 32 0.501222
r26 31 39 0.501222
r27 26 39 0.227727
r28 26 38 0.616757
r29 25 52 0.148148
r30 22 57 0.148148
r31 22 25 0.156743
r32 20 37 0.146947
r33 20 25 0.16654
r34 15 49 0.444444
r35 15 43 12.8903
r36 7 42 8.50591
r37 7 42 10.8779
r38 6 46 0.148148
r39 6 42 8.42544
r40 1 42 7.01626
r41 1 15 3.42654
r42 1 6 3.44138
.ends

.subckt PM_DFFD1%net167 1 30 33 34 44 45 46
r18 60 61 0.21284
r19 55 57 0.29276
r20 53 60 0.0896579
r21 53 55 0.0567223
r22 52 61 0.4428
r23 49 52 0.513391
r24 39 57 0.222222
r25 39 40 0.237934
r26 34 44 0.459719
r27 33 34 0.459709
r28 30 44 0.0968625
r29 30 33 0.459709
r30 28 29 0.49691
r31 28 40 0.49691
r32 26 44 0.186466
r33 26 29 0.49694
r34 25 55 0.148148
r35 22 60 0.148148
r36 22 25 0.156743
r37 20 39 0.080331
r38 20 25 0.233156
r39 15 52 0.444444
r40 15 46 12.8903
r41 7 45 8.50591
r42 7 45 10.8779
r43 6 49 0.148148
r44 6 45 8.42544
r45 1 45 7.01626
r46 1 15 3.42654
r47 1 6 3.44138
.ends

.subckt PM_DFFD1%net169 1 27 28 37 38 39
r16 53 54 0.21284
r17 48 50 0.29276
r18 46 53 0.0896579
r19 46 48 0.0567223
r20 45 54 0.4428
r21 42 45 0.513391
r22 35 50 0.222222
r23 33 53 0.148148
r24 28 37 0.501231
r25 27 28 0.501222
r26 24 35 1.021
r27 24 27 0.501222
r28 23 48 0.148148
r29 21 33 0.119517
r30 21 23 0.0372266
r31 20 35 0.123441
r32 20 23 0.19397
r33 15 45 0.444444
r34 15 39 12.8903
r35 7 38 8.50591
r36 7 38 10.8779
r37 6 42 0.148148
r38 6 38 8.42544
r39 1 38 7.01626
r40 1 15 3.42654
r41 1 6 3.44138
.ends

.subckt PM_DFFD1%:CK 8 9 10 24 29 32 33 36 37 38 39 41 50 51 55 56 58 60 64 68
+ 69 71 88 89 91 125 126 127 128 129 130 131
r99 139 141 0.466105
r100 137 139 0.815684
r101 134 137 0.466105
r102 107 134 0.148148
r103 96 130 0.11324
r104 96 130 0.876375
r105 92 129 0.11324
r106 92 129 0.876375
r107 91 130 0.151698
r108 90 91 0.33948
r109 88 129 0.151698
r110 88 89 0.33948
r111 86 87 1.11754
r112 85 86 1.11754
r113 84 85 1.11754
r114 83 84 1.11754
r115 82 83 1.11754
r116 81 112 0.187502
r117 81 82 1.11754
r118 80 90 0.247405
r119 80 87 1.11757
r120 78 79 1.11754
r121 77 78 1.11754
r122 76 77 1.11754
r123 75 76 1.11754
r124 74 75 1.11754
r125 73 111 0.187502
r126 73 74 1.11754
r127 72 89 0.247405
r128 72 79 1.11757
r129 71 128 0.155396
r130 70 112 0.0487284
r131 70 71 0.33948
r132 69 111 0.0487284
r133 68 127 0.155396
r134 68 69 0.33948
r135 64 128 0.109542
r136 64 128 0.369
r137 60 127 0.109542
r138 60 127 0.369
r139 58 112 0.187502
r140 58 59 1.476
r141 57 108 0.187502
r142 56 111 0.187502
r143 56 57 1.476
r144 54 55 1.13159
r145 53 59 0.247405
r146 53 55 1.13162
r147 52 108 0.0487284
r148 52 54 1.13159
r149 50 51 1.00368
r150 49 107 0.0487284
r151 49 50 1.00368
r152 48 108 0.187502
r153 48 51 1.00368
r154 46 137 0.444444
r155 44 107 0.187502
r156 44 46 0.3321
r157 43 107 0.187502
r158 42 43 1.34316
r159 41 126 0.186466
r160 40 42 0.247405
r161 40 41 0.57564
r162 38 39 0.427422
r163 38 126 0.427422
r164 37 126 0.427431
r165 36 37 0.427422
r166 33 126 0.0968625
r167 33 36 0.427422
r168 32 126 0.0968625
r169 32 39 0.427431
r170 30 31 0.95447
r171 29 125 0.186466
r172 29 30 0.95447
r173 28 126 0.186466
r174 28 31 0.9545
r175 24 125 0.0968625
r176 24 125 0.641137
r177 23 139 0.148148
r178 16 141 0.444444
r179 14 23 3.64668
r180 14 16 9.35501
r181 10 23 3.64668
r182 10 131 14.1384
r183 8 9 15.488
r184 8 131 15.488
r185 1 131 3.26338
r186 1 9 15.4883
.ends

.subckt PM_DFFD1%net168 1 2 3 17 26 46 49 50 60 61 62 63
r30 74 76 0.283392
r31 71 74 0.141696
r32 71 72 0.203516
r33 69 72 0.418537
r34 66 69 0.48526
r35 61 63 14.5039
r36 55 76 0.222222
r37 55 56 0.237934
r38 50 60 0.705712
r39 49 50 0.705712
r40 46 60 0.0968625
r41 46 49 0.705712
r42 44 45 0.49691
r43 44 56 0.49691
r44 42 60 0.186466
r45 42 45 0.49694
r46 41 74 0.148148
r47 38 71 0.148148
r48 38 41 0.156743
r49 36 55 0.080331
r50 36 41 0.233156
r51 29 69 0.444444
r52 29 62 12.8903
r53 26 29 0.0815844
r54 17 63 3.26338
r55 17 63 18.4925
r56 10 66 0.148148
r57 8 10 20.9991
r58 7 26 1.71587
r59 7 10 5.48625
r60 4 61 3.47738
r61 4 61 9.42753
r62 3 61 3.26338
r63 3 61 9.42753
r64 2 8 7.33964
r65 1 61 3.89466
r66 1 2 17.6222
.ends

.subckt PM_DFFD1%net170 2 13 17 42 45 46 56 57 58 59
r28 73 74 0.21284
r29 68 70 0.29276
r30 66 73 0.0896579
r31 66 68 0.0567223
r32 65 74 0.4428
r33 62 65 0.513391
r34 57 59 14.5039
r35 51 70 0.222222
r36 51 52 0.237934
r37 46 56 0.705712
r38 45 46 0.705712
r39 42 56 0.0968625
r40 42 45 0.705712
r41 40 41 0.49691
r42 40 52 0.49691
r43 38 56 0.186466
r44 38 41 0.49694
r45 37 68 0.148148
r46 34 73 0.148148
r47 34 37 0.156743
r48 32 51 0.080331
r49 32 37 0.233156
r50 26 65 0.444444
r51 26 27 0.0815844
r52 26 58 12.8903
r53 17 57 9.06493
r54 13 59 6.52675
r55 13 59 15.2291
r56 6 62 0.148148
r57 4 6 20.9991
r58 3 27 1.71587
r59 3 6 5.48625
r60 2 17 1.93308
r61 1 4 7.33964
r62 1 2 17.6222
.ends

.subckt PM_DFFD1%:D 8 9 10 17 18 21 36 41 46 49 50 63 64 65
r46 73 75 0.466105
r47 71 73 0.780726
r48 68 71 0.466105
r49 55 73 0.148148
r50 50 64 0.336713
r51 49 50 0.336713
r52 46 64 0.115592
r53 46 49 0.336713
r54 44 75 0.444444
r55 42 55 0.123703
r56 42 44 0.3321
r57 41 64 0.454644
r58 41 63 0.477664
r59 40 55 0.123703
r60 40 41 1.07748
r61 36 63 0.115592
r62 36 63 0.456638
r63 30 71 0.444444
r64 27 28 35.2009
r65 26 27 35.2009
r66 25 26 35.2009
r67 24 68 0.148148
r68 24 30 17.4047
r69 24 28 35.2009
r70 22 25 35.2009
r71 20 21 31.9189
r72 19 20 31.9189
r73 18 19 31.9189
r74 17 18 31.9189
r75 16 17 31.9189
r76 15 21 31.9193
r77 14 22 7.29337
r78 14 16 31.9189
r79 10 15 7.29337
r80 10 65 29.9891
r81 8 9 15.488
r82 8 65 15.488
r83 1 65 3.26338
r84 1 9 15.4883
.ends

.subckt PM_DFFD1%VDD 1 67 68 69 71 72 73 87 88 91 92 95 96 111 112 115 116 117
+ 118 119 120 123 124 125 126 127 128 131 132 133 134 141 142 144 154 155 156
+ 159 160 175 176 179 180 195 196 199 200 215 216 219 220 223 224 241 242 245
+ 246 261 262 265 266 281 282 285 286 303 304 307 308 323 324 327 328 343 344
+ 347 348 364 367 368 371 372 389 390 393 394 409 410 413 414 429 430 433 439
+ 451 454 457 469 626 681 682 683 684 685 686 687 688 689 690 691 692 693 694
+ 695 696 697 698 699 700 701 702 703 704 705 706 707 708 709 710 711 712 713
+ 714 715 716 717 718 726 727 738 739 750 751 762 763 774 775
r273 774 775 0.501836
r274 773 777 0.4428
r275 773 775 0.501847
r276 771 774 0.501836
r277 768 771 0.4428
r278 762 763 0.540581
r279 761 765 0.4428
r280 761 763 0.540592
r281 759 762 0.540581
r282 756 759 0.4428
r283 750 751 0.49815
r284 749 753 0.4428
r285 749 751 0.49815
r286 747 750 0.49815
r287 744 747 0.4428
r288 738 739 0.538733
r289 737 741 0.4428
r290 737 739 0.538755
r291 735 738 0.538733
r292 732 735 0.4428
r293 726 727 0.501836
r294 725 729 0.4428
r295 725 727 0.501847
r296 723 726 0.501836
r297 720 723 0.4428
r298 716 718 16.8432
r299 715 717 16.8432
r300 714 716 25.2648
r301 713 715 25.2648
r302 712 714 16.8432
r303 711 713 16.8432
r304 708 710 16.8432
r305 707 709 16.8432
r306 706 708 25.2648
r307 705 707 25.2648
r308 704 706 16.8432
r309 703 705 16.8432
r310 702 704 115.376
r311 700 702 16.8432
r312 699 701 16.8432
r313 698 700 25.2648
r314 697 699 25.2648
r315 696 698 16.8432
r316 695 697 16.8432
r317 692 694 16.8432
r318 691 693 16.8432
r319 690 692 25.2648
r320 689 691 25.2648
r321 688 690 16.8432
r322 687 689 16.8432
r323 648 765 0.444444
r324 648 711 14.3215
r325 648 711 2.44082
r326 644 761 0.148148
r327 644 711 6.85754
r328 642 777 0.444444
r329 642 712 15.7315
r330 642 712 1.18668
r331 638 773 0.148148
r332 638 712 8.30677
r333 636 771 0.444444
r334 636 710 8.01879
r335 632 768 0.148148
r336 632 710 0.709145
r337 630 759 0.444444
r338 630 709 1.17581
r339 626 709 4.67188
r340 626 709 19.5802
r341 581 703 37.2656
r342 580 753 0.444444
r343 580 581 7.16322
r344 578 747 0.444444
r345 578 701 7.79135
r346 574 744 0.148148
r347 574 701 0.926244
r348 537 741 0.444444
r349 537 696 4.38533
r350 535 729 0.444444
r351 535 695 15.8633
r352 535 695 1.21036
r353 531 725 0.148148
r354 531 695 8.47253
r355 527 735 0.444444
r356 527 694 7.64282
r357 523 732 0.148148
r358 523 694 1.09183
r359 521 723 0.444444
r360 521 693 7.64282
r361 517 720 0.148148
r362 517 693 1.09183
r363 477 688 13.6425
r364 469 686 6.05994
r365 466 686 6.05994
r366 463 685 6.05994
r367 460 684 6.05994
r368 457 683 6.05994
r369 454 682 6.05994
r370 451 681 6.05994
r371 448 683 6.05994
r372 445 682 6.05994
r373 442 681 6.05994
r374 433 717 6.52675
r375 433 717 31.6786
r376 430 718 3.26338
r377 430 718 31.6786
r378 429 718 3.38949
r379 429 718 31.6786
r380 414 715 6.52675
r381 414 715 28.4152
r382 413 715 3.26338
r383 413 715 28.4152
r384 410 716 3.26338
r385 410 716 31.6786
r386 409 716 3.26338
r387 409 716 31.6786
r388 394 713 6.52675
r389 394 713 9.31256
r390 393 713 3.26338
r391 393 713 9.31256
r392 390 714 3.26338
r393 390 714 12.5759
r394 389 714 3.26338
r395 389 714 12.5759
r396 374 756 0.148148
r397 374 709 0.374486
r398 372 709 3.26338
r399 372 374 3.42387
r400 371 709 3.26338
r401 371 709 3.79835
r402 368 710 3.26338
r403 368 710 21.6497
r404 367 632 9.70286
r405 367 710 21.6497
r406 364 709 3.26338
r407 364 709 19.5802
r408 348 707 6.52675
r409 348 707 28.4152
r410 347 707 3.26338
r411 347 707 28.4152
r412 344 708 3.26338
r413 344 708 31.6786
r414 343 708 3.26338
r415 343 708 31.6786
r416 328 705 6.52675
r417 328 705 9.31256
r418 327 705 3.26338
r419 327 705 9.31256
r420 324 706 3.26338
r421 324 706 12.5759
r422 323 706 3.26338
r423 323 706 12.5759
r424 308 703 6.52675
r425 308 703 9.31256
r426 307 703 3.26338
r427 307 703 9.31256
r428 304 704 3.26338
r429 304 704 12.5759
r430 303 704 3.26338
r431 303 704 12.5759
r432 297 749 0.148148
r433 295 580 1.43588
r434 295 297 9.00692
r435 286 702 3.26338
r436 286 702 31.6786
r437 285 702 3.26338
r438 285 702 31.6786
r439 282 701 3.26338
r440 282 701 20.6946
r441 281 574 10.1352
r442 281 701 20.6946
r443 266 699 6.52675
r444 266 699 28.4152
r445 265 699 3.26338
r446 265 699 28.4152
r447 262 700 3.26338
r448 262 700 31.6786
r449 261 700 3.26338
r450 261 700 31.6786
r451 246 697 6.52675
r452 246 697 9.31256
r453 245 697 3.26338
r454 245 697 9.31256
r455 242 698 3.26338
r456 242 698 12.5759
r457 241 698 3.26338
r458 241 698 12.5759
r459 226 737 0.148148
r460 226 696 2.7284
r461 224 696 3.26338
r462 224 226 0.962963
r463 223 537 2.45539
r464 223 696 3.69136
r465 220 694 3.26338
r466 220 694 22.2069
r467 219 523 8.9409
r468 219 694 22.2069
r469 216 693 3.26338
r470 216 693 22.2069
r471 215 517 8.9409
r472 215 693 22.2069
r473 200 691 6.52675
r474 200 691 28.4152
r475 199 691 3.26338
r476 199 691 28.4152
r477 196 692 3.26338
r478 196 692 31.6786
r479 195 692 3.26338
r480 195 692 31.6786
r481 180 689 6.52675
r482 180 689 9.31256
r483 179 689 3.26338
r484 179 689 9.31256
r485 176 690 3.26338
r486 176 690 12.5759
r487 175 690 3.26338
r488 175 690 12.5759
r489 160 687 6.52675
r490 160 687 9.31256
r491 159 687 3.26338
r492 159 687 9.31256
r493 156 688 3.71264
r494 156 688 12.5759
r495 155 688 3.26338
r496 155 688 12.5759
r497 153 477 1.52054
r498 153 154 33.9391
r499 151 477 5.99584
r500 151 152 36.9849
r501 150 687 17.5456
r502 149 150 17.5447
r503 147 149 17.5447
r504 143 144 36.8979
r505 142 143 36.8979
r506 141 142 36.8979
r507 140 152 7.29337
r508 140 144 36.8979
r509 139 147 7.29337
r510 139 141 36.8979
r511 137 138 41.481
r512 137 469 41.481
r513 135 154 7.29337
r514 135 138 41.4814
r515 133 134 10.2563
r516 133 686 10.2563
r517 132 686 10.2563
r518 131 132 10.2563
r519 128 686 3.26338
r520 128 131 10.2563
r521 127 686 3.26338
r522 127 134 10.2563
r523 125 126 10.2563
r524 125 685 10.2563
r525 124 685 10.2563
r526 123 124 10.2563
r527 120 685 3.26338
r528 120 123 10.2563
r529 119 685 3.49169
r530 119 126 10.2563
r531 117 118 10.2563
r532 117 684 10.2563
r533 116 684 10.2563
r534 115 116 10.2563
r535 112 684 3.26338
r536 112 115 10.2563
r537 111 684 3.49169
r538 111 118 10.2563
r539 110 466 29.0084
r540 109 110 29.0075
r541 109 457 29.0075
r542 106 463 29.0084
r543 105 106 29.0075
r544 105 454 29.0075
r545 102 460 29.0084
r546 101 102 29.0075
r547 101 451 29.0075
r548 96 683 3.26338
r549 96 683 12.1211
r550 95 683 3.26338
r551 95 683 12.1211
r552 92 682 3.26338
r553 92 682 12.1211
r554 91 682 3.26338
r555 91 682 12.1211
r556 88 681 3.26338
r557 88 681 12.1211
r558 87 681 3.26338
r559 87 681 12.1211
r560 86 448 23.9314
r561 85 86 23.9314
r562 83 439 5.52744
r563 81 445 28.863
r564 80 81 28.8626
r565 79 438 1.43649
r566 79 80 28.8626
r567 77 442 28.863
r568 76 77 28.8626
r569 75 76 28.8626
r570 72 73 34.5191
r571 71 439 1.43649
r572 71 73 34.5195
r573 70 438 5.52744
r574 70 72 34.5191
r575 68 69 34.5191
r576 67 438 5.52744
r577 67 69 34.5195
r578 66 75 7.29337
r579 66 68 34.5191
r580 1 85 23.9314
r581 1 83 14.794
.ends

.subckt PM_DFFD1%net160 1 3 17 26 46 49 50 60 61 62 63
r30 74 76 0.29276
r31 71 74 0.14638
r32 71 72 0.21284
r33 69 72 0.4428
r34 66 69 0.513391
r35 61 63 14.5039
r36 55 76 0.222222
r37 55 56 0.237934
r38 50 60 0.705712
r39 49 50 0.705712
r40 46 60 0.0968625
r41 46 49 0.705712
r42 44 45 0.49691
r43 44 56 0.49691
r44 42 60 0.186466
r45 42 45 0.49694
r46 41 74 0.148148
r47 38 71 0.148148
r48 38 41 0.156743
r49 36 55 0.080331
r50 36 41 0.233156
r51 29 69 0.444444
r52 29 62 12.8903
r53 26 29 0.0815844
r54 17 63 3.26338
r55 17 63 18.4925
r56 10 66 0.148148
r57 8 10 20.9991
r58 7 26 1.71587
r59 7 10 5.48625
r60 4 61 3.47738
r61 4 61 9.42753
r62 3 61 3.26338
r63 3 61 9.42753
r64 2 8 7.33964
r65 1 61 3.89466
r66 1 2 17.6222
.ends

.subckt PM_DFFD1%net159 2 13 17 42 45 46 56 57 58 59
r28 73 74 0.213544
r29 68 70 0.290361
r30 66 73 0.0907377
r31 66 68 0.0544426
r32 65 74 0.4428
r33 62 65 0.513391
r34 57 59 14.5039
r35 51 70 0.222222
r36 51 52 0.237934
r37 46 56 0.705712
r38 45 46 0.705712
r39 42 56 0.0968625
r40 42 45 0.705712
r41 40 41 0.49691
r42 40 52 0.49691
r43 38 56 0.186466
r44 38 41 0.49694
r45 37 68 0.148148
r46 34 73 0.148148
r47 34 37 0.156743
r48 32 51 0.080331
r49 32 37 0.233156
r50 26 65 0.444444
r51 26 27 0.0815844
r52 26 58 12.8903
r53 17 57 9.06493
r54 13 59 6.52675
r55 13 59 15.2291
r56 6 62 0.148148
r57 4 6 20.9991
r58 3 27 1.71587
r59 3 6 5.48625
r60 2 17 1.93308
r61 1 4 7.33964
r62 1 2 17.6222
.ends

.subckt PM_DFFD1%F1 1 7 8 9 15 16 23 24 27 28 32 34 55 64 65 68 69 82 83 84 85
+ 86
r53 88 92 0.264358
r54 85 86 0.707376
r55 84 86 14.5039
r56 74 92 0.444444
r57 69 83 0.336713
r58 68 69 0.336713
r59 65 83 0.115592
r60 65 68 0.336713
r61 64 74 0.123703
r62 63 83 0.466154
r63 63 82 0.466154
r64 63 64 0.738
r65 61 88 0.148148
r66 59 74 0.123703
r67 59 61 0.19926
r68 55 82 0.115592
r69 55 82 0.456638
r70 43 92 0.444444
r71 40 41 27.978
r72 39 40 27.978
r73 38 39 27.978
r74 37 88 0.148148
r75 37 43 17.4047
r76 37 41 27.978
r77 35 38 27.978
r78 33 34 15.5189
r79 32 35 7.29337
r80 32 34 15.5197
r81 31 33 15.5189
r82 28 85 15.6181
r83 28 86 2.17558
r84 27 31 7.29337
r85 27 86 17.8398
r86 24 86 3.26338
r87 24 86 13.0535
r88 23 86 19.925
r89 23 86 13.0535
r90 15 16 59.8285
r91 15 85 59.8285
r92 9 86 21.795
r93 9 16 59.8285
r94 7 8 13.4161
r95 7 84 13.4161
r96 1 84 3.26338
r97 1 8 13.4161
.ends

.subckt PM_DFFD1%F1N 1 7 8 9 15 16 23 24 27 28 33 34 55 62 67 70 71 84 85 86 87
+ 88
r54 90 94 0.264358
r55 87 88 0.707376
r56 86 88 14.5039
r57 76 90 0.148148
r58 71 85 0.336713
r59 70 71 0.336713
r60 67 85 0.115592
r61 67 70 0.336713
r62 65 94 0.444444
r63 63 76 0.187502
r64 63 65 0.2214
r65 62 85 0.466154
r66 62 84 0.466154
r67 61 76 0.0487284
r68 61 62 0.738
r69 55 84 0.115592
r70 55 84 0.456638
r71 43 94 0.444444
r72 40 41 29.5879
r73 39 40 29.5879
r74 38 39 29.5879
r75 37 90 0.148148
r76 37 43 17.4047
r77 37 41 29.5879
r78 35 38 29.5879
r79 33 34 15.5189
r80 32 34 15.5197
r81 31 35 7.29337
r82 31 33 15.5189
r83 28 87 15.6181
r84 28 88 2.17558
r85 27 32 7.29337
r86 27 88 17.8398
r87 24 88 3.26338
r88 24 88 13.0535
r89 23 88 19.925
r90 23 88 13.0535
r91 15 16 59.8285
r92 15 87 59.8285
r93 9 88 21.795
r94 9 16 59.8285
r95 7 8 13.4161
r96 7 86 13.4161
r97 1 86 3.26338
r98 1 8 13.4161
.ends

.subckt PM_DFFD1%F1ON 1 7 8 9 15 16 23 24 27 28 32 33 34 43 44 45 60 65 75 76 78
+ 79 86 88 93 100 103 104 112 122 123 124 125 126 127 128
r89 142 143 0.390363
r90 141 145 0.466105
r91 141 143 0.390363
r92 139 142 0.390363
r93 136 139 0.466105
r94 130 133 0.991872
r95 127 128 0.707376
r96 126 128 14.5039
r97 104 125 0.336713
r98 103 104 0.336713
r99 100 125 0.115592
r100 100 103 0.336713
r101 98 145 0.444444
r102 96 141 0.148148
r103 96 98 0.5904
r104 94 96 0.05904
r105 93 125 0.454644
r106 93 124 0.477664
r107 92 94 0.247405
r108 92 93 1.23246
r109 88 124 0.115592
r110 88 124 0.456638
r111 86 133 0.148148
r112 84 86 1.23984
r113 80 123 0.11324
r114 80 123 0.876375
r115 78 79 1.0824
r116 77 112 0.187502
r117 77 78 1.0824
r118 76 84 0.247405
r119 76 79 1.08241
r120 75 123 0.151698
r121 74 112 0.0487284
r122 74 75 0.23616
r123 72 73 1.11754
r124 71 72 1.11754
r125 70 71 1.11754
r126 69 70 1.11754
r127 68 69 1.11754
r128 67 68 1.11754
r129 66 112 0.187502
r130 66 73 1.11757
r131 65 122 0.155396
r132 64 67 0.247405
r133 64 65 0.33948
r134 60 122 0.109542
r135 60 122 0.369
r136 47 139 0.444444
r137 44 45 35.1139
r138 43 44 35.1139
r139 42 43 35.1139
r140 41 136 0.148148
r141 41 47 17.4047
r142 41 45 35.1139
r143 39 42 35.1139
r144 37 130 0.148148
r145 35 59 5.52744
r146 35 37 16.9695
r147 33 34 25.3817
r148 32 59 5.52744
r149 32 34 25.3821
r150 31 39 7.29337
r151 31 33 25.3817
r152 28 128 15.6181
r153 28 127 2.17558
r154 27 59 1.43649
r155 27 127 15.2291
r156 24 128 3.26338
r157 24 128 13.0535
r158 23 127 19.925
r159 23 128 13.0535
r160 15 16 59.8285
r161 15 127 59.8285
r162 9 127 21.795
r163 9 16 59.8285
r164 7 8 13.4161
r165 7 126 13.4161
r166 1 126 3.26338
r167 1 8 13.4161
.ends

.subckt PM_DFFD1%F1O 1 7 8 9 15 16 23 24 27 28 54 58 59 68 69 76 77 78 80 90 92
+ 95 96 104 116 117 118 119 120 121 122 127 133 134
r87 145 148 0.02952
r88 140 141 1.03242
r89 139 140 1.03242
r90 138 139 1.03242
r91 137 143 0.466105
r92 137 141 1.03242
r93 135 138 1.03242
r94 133 134 0.809335
r95 132 133 0.809335
r96 129 132 0.5904
r97 127 135 0.251885
r98 127 134 0.80935
r99 123 145 0.0230672
r100 123 125 0.477758
r101 121 122 0.707376
r102 120 122 14.5039
r103 106 143 0.444444
r104 96 119 0.336713
r105 95 96 0.336713
r106 92 119 0.115592
r107 92 95 0.336713
r108 90 91 0.654355
r109 89 106 0.123703
r110 89 91 0.65437
r111 88 119 0.454644
r112 88 118 0.477664
r113 88 90 0.654355
r114 86 137 0.148148
r115 84 106 0.123703
r116 84 86 0.10332
r117 80 118 0.115592
r118 80 118 0.456638
r119 77 78 1.46369
r120 76 148 0.148148
r121 76 78 1.46372
r122 74 104 0.187502
r123 74 77 1.46369
r124 70 117 0.11324
r125 70 117 0.876375
r126 69 104 0.0487284
r127 68 117 0.151698
r128 68 69 0.23616
r129 66 67 1.11754
r130 65 66 1.11754
r131 64 65 1.11754
r132 63 64 1.11754
r133 62 63 1.11754
r134 61 62 1.11754
r135 60 104 0.187502
r136 60 67 1.11757
r137 59 61 0.247405
r138 58 116 0.155396
r139 58 59 0.33948
r140 54 116 0.109542
r141 54 116 0.369
r142 41 132 0.444444
r143 39 129 0.148148
r144 39 41 17.4047
r145 37 53 5.52744
r146 37 39 6.96187
r147 35 36 23.4963
r148 33 125 0.148148
r149 33 35 23.4963
r150 31 53 5.52744
r151 31 36 23.4963
r152 28 122 15.6181
r153 28 121 2.17558
r154 27 53 1.43649
r155 27 121 41.3361
r156 24 122 3.26338
r157 24 122 13.0535
r158 23 121 19.925
r159 23 122 13.0535
r160 15 16 59.8285
r161 15 121 59.8285
r162 9 121 21.795
r163 9 16 59.8285
r164 7 8 13.4161
r165 7 120 13.4161
r166 1 120 3.26338
r167 1 8 13.4161
.ends

.subckt PM_DFFD1%::CK 8 9 10 52 53 57 64 66 68 72 76 77 79 96 97 99 123 124 125
+ 126 127 130
r75 130 134 0.329618
r76 104 126 0.11324
r77 104 126 0.876375
r78 100 125 0.11324
r79 100 125 0.876375
r80 99 126 0.151698
r81 98 99 0.33948
r82 96 125 0.151698
r83 96 97 0.33948
r84 94 95 1.11754
r85 93 94 1.11754
r86 92 93 1.11754
r87 91 92 1.11754
r88 90 91 1.11754
r89 89 112 0.187502
r90 89 90 1.11754
r91 88 98 0.247405
r92 88 95 1.11757
r93 86 87 1.11754
r94 85 86 1.11754
r95 84 85 1.11754
r96 83 84 1.11754
r97 82 83 1.11754
r98 81 111 0.187502
r99 81 82 1.11754
r100 80 97 0.247405
r101 80 87 1.11757
r102 79 124 0.155396
r103 78 112 0.0487284
r104 78 79 0.33948
r105 77 111 0.0487284
r106 76 123 0.155396
r107 76 77 0.33948
r108 72 124 0.109542
r109 72 124 0.369
r110 68 123 0.109542
r111 68 123 0.369
r112 66 112 0.187502
r113 66 67 1.476
r114 65 108 0.0487284
r115 64 111 0.187502
r116 64 65 1.476
r117 62 134 0.444444
r118 60 134 0.148148
r119 60 62 0.5904
r120 58 60 0.22878
r121 56 57 1.13159
r122 55 67 0.247405
r123 55 57 1.13162
r124 54 108 0.187502
r125 54 56 1.13159
r126 52 53 0.53874
r127 51 108 0.187502
r128 51 53 0.53874
r129 50 58 0.247405
r130 50 52 0.53874
r131 44 130 0.444444
r132 41 42 32.1254
r133 40 41 32.1254
r134 39 40 32.1254
r135 38 39 32.1254
r136 37 38 32.1254
r137 36 37 32.1254
r138 35 36 32.1254
r139 34 35 32.1254
r140 33 34 32.1254
r141 32 33 32.1254
r142 31 32 32.1254
r143 30 31 32.1254
r144 29 30 32.1254
r145 28 29 32.1254
r146 27 28 32.1254
r147 26 27 32.1254
r148 25 26 32.1254
r149 24 25 32.1254
r150 23 24 32.1254
r151 22 23 32.1254
r152 21 22 32.1254
r153 20 21 32.1254
r154 19 20 32.1254
r155 18 130 0.148148
r156 18 44 13.7405
r157 18 42 32.1254
r158 16 19 32.1254
r159 14 16 7.42543
r160 14 15 13.2711
r161 10 15 7.29337
r162 10 127 12.8953
r163 8 9 15.488
r164 8 127 15.488
r165 1 127 3.26338
r166 1 9 15.4883
.ends

.subckt PM_DFFD1%net154 1 2 3 17 26 46 49 50 60 61 62 63
r30 74 76 0.290361
r31 71 74 0.14518
r32 71 72 0.216731
r33 69 72 0.449312
r34 66 69 0.520941