* File: NOR2D8.cdl.pex
* Created: Mon Dec 22 21:23:22 2025
* Program "Calibre xRC"
* Version "v2023.1_18.8"
* Nominal Temperature: 25C
* Circuit Temperature: 25C
* 
.subckt PM_NOR2D8%VSS 1 29 30 33 34 35 36 37 38 39 40 60 61 62 63 66 73 74 75
r20 77 82 0.316286
r21 70 82 1
r22 68 82 1
r23 68 70 0.15269
r24 65 82 1
r25 65 68 0.15269
r26 65 66 0.251086
r27 63 66 1.39652
r28 62 63 1.39652
r29 61 62 1.39652
r30 60 61 1.39652
r31 60 73 1.39652
r32 51 75 3.81065
r33 49 75 6.92783
r34 46 74 5.08901
r35 39 40 6.74431
r36 38 39 6.74431
r37 37 38 6.74431
r38 37 75 6.74431
r39 36 75 6.74431
r40 35 36 6.74431
r41 34 35 6.74431
r42 33 34 6.74431
r43 30 75 6.52675
r44 30 33 6.74431
r45 29 51 3.7716
r46 29 40 6.74431
r47 28 49 10.6647
r48 27 28 10.6647
r49 26 27 10.6647
r50 25 26 10.6647
r51 24 25 10.6647
r52 23 24 10.6647
r53 21 22 7.31427
r54 19 77 1
r55 19 21 7.31427
r56 17 77 1
r57 17 19 2.6107
r58 15 77 1
r59 15 17 2.6107
r60 15 46 3.26338
r61 10 11 7.61451
r62 10 74 7.61451
r63 9 74 7.6146
r64 8 9 7.61451
r65 5 74 6.52675
r66 5 8 7.61451
r67 4 74 3.26338
r68 4 11 7.6146
r69 1 23 10.6647
r70 1 22 7.3144
.ends

.subckt PM_NOR2D8%net11 4 5 10 11 16 17 22 23 28 29 34 35 40 41 46 47 52 53 58
+ 59 64 65 70 71 76 77 82 83 88 89 94 95 119 133 134 135 136 147 148 149 150 151
+ 152 153 154 155 156 157 158 159 160 161 162 163 164
r233 175 177 0.2952
r234 173 175 0.2952
r235 171 173 0.738
r236 169 171 0.2952
r237 166 169 0.2952
r238 145 177 1
r239 136 147 1.61792
r240 135 136 1.61792
r241 134 135 1.61792
r242 133 134 1.61792
r243 132 133 1.61792
r244 131 132 1.61792
r245 128 131 1.61792
r246 127 145 0.156299
r247 126 128 0.252919
r248 126 127 2.03688
r249 125 175 1
r250 122 173 1
r251 122 125 0.2952
r252 120 145 0.104199
r253 120 125 0.2214
r254 119 171 1
r255 117 169 1
r256 117 119 2.81325
r257 115 166 1
r258 115 117 2.81325
r259 113 115 5.62651
r260 112 113 11.253
r261 111 112 11.253
r262 110 111 11.253
r263 109 110 11.253
r264 108 109 11.253
r265 107 108 11.253
r266 106 107 11.253
r267 105 106 11.253
r268 104 105 11.253
r269 104 148 4.92319
r270 101 148 6.32982
r271 100 101 11.253
r272 99 100 11.253
r273 98 99 11.253
r274 97 98 11.253
r275 95 164 20.306
r276 94 95 20.3052
r277 91 119 7.99743
r278 91 94 20.3052
r279 89 163 20.306
r280 88 89 20.3052
r281 85 113 7.99743
r282 85 88 20.3052
r283 83 162 20.306
r284 82 83 20.3052
r285 79 112 7.99743
r286 79 82 20.3052
r287 77 161 20.306
r288 76 77 20.3052
r289 73 111 7.99743
r290 73 76 20.3052
r291 71 160 20.306
r292 70 71 20.3052
r293 67 110 7.99743
r294 67 70 20.3052
r295 65 159 20.306
r296 64 65 20.3052
r297 61 109 7.99743
r298 61 64 20.3052
r299 59 158 20.306
r300 58 59 20.3052
r301 55 108 7.99743
r302 55 58 20.3052
r303 53 157 20.306
r304 52 53 20.3052
r305 49 107 7.99743
r306 49 52 20.3052
r307 47 156 20.306
r308 46 47 20.3052
r309 43 106 7.99743
r310 43 46 20.3052
r311 41 155 20.306
r312 40 41 20.3052
r313 37 105 7.99743
r314 37 40 20.3052
r315 35 154 20.306
r316 34 35 20.3052
r317 31 104 7.99743
r318 31 34 20.3052
r319 29 153 20.306
r320 28 29 20.3052
r321 25 101 7.99743
r322 25 28 20.3052
r323 23 152 20.306
r324 22 23 20.3052
r325 19 100 7.99743
r326 19 22 20.3052
r327 17 151 20.306
r328 16 17 20.3052
r329 13 99 7.99743
r330 13 16 20.3052
r331 11 150 20.306
r332 10 11 20.3052
r333 7 98 7.99743
r334 7 10 20.3052
r335 5 149 20.306
r336 4 5 20.3052
r337 1 97 7.99743
r338 1 4 20.3052
.ends

.subckt PM_NOR2D8%net10 1 6 10 11 15 20 24 25 29 34 38 39 43 48 52 53 57 62 66
+ 67 71 76 80 81 85 90 94 95 99 104 108 109 113 118 122 123 127 132 136 137 141
+ 146 150 151 155 160 164 165 169 174 178 179 183 188 192 193 197 202 206 207
+ 211 216 220 221 225 230 234 235 254 255 256 257 258 259 260 261 262 263 264
+ 265 266 267 268 269 270 271 272 273 274 275 276 277 278 279 280 281 282 283
+ 284 285 286 287
r418 235 287 20.306
r419 234 235 20.3052
r420 231 253 6.97267
r421 231 234 20.3052
r422 229 230 20.3052
r423 229 286 20.3052
r424 225 253 6.97267
r425 225 230 20.306
r426 224 252 4.89506
r427 223 253 0.353334
r428 223 224 16.3169
r429 221 285 20.306
r430 220 221 20.3052
r431 217 252 8.70233
r432 217 220 20.3052
r433 215 216 20.3052
r434 215 284 20.3052
r435 211 252 8.70233
r436 211 216 20.306
r437 210 251 4.89506
r438 209 252 4.89506
r439 209 210 16.3169
r440 207 283 20.306
r441 206 207 20.3052
r442 203 251 8.70233
r443 203 206 20.3052
r444 201 202 20.3052
r445 201 282 20.3052
r446 197 251 8.70233
r447 197 202 20.306
r448 196 250 4.89506
r449 195 251 4.89506
r450 195 196 16.3169
r451 193 281 20.306
r452 192 193 20.3052
r453 189 250 8.70233
r454 189 192 20.3052
r455 187 188 20.3052
r456 187 280 20.3052
r457 183 250 8.70233
r458 183 188 20.306
r459 182 249 4.89506
r460 181 250 4.89506
r461 181 182 16.3169
r462 179 279 20.306
r463 178 179 20.3052
r464 175 249 8.70233
r465 175 178 20.3052
r466 173 174 20.3052
r467 173 278 20.3052
r468 169 249 8.70233
r469 169 174 20.306
r470 168 248 4.89506
r471 167 249 4.89506
r472 167 168 16.3169
r473 165 277 20.306
r474 164 165 20.3052
r475 161 248 8.70233
r476 161 164 20.3052
r477 159 160 20.3052
r478 159 276 20.3052
r479 155 248 8.70233
r480 155 160 20.306
r481 154 247 4.89506
r482 153 248 4.89506
r483 153 154 16.3169
r484 151 275 20.306
r485 150 151 20.3052
r486 147 247 8.70233
r487 147 150 20.3052
r488 145 146 20.3052
r489 145 274 20.3052
r490 141 247 8.70233
r491 141 146 20.306
r492 140 246 4.89506
r493 139 247 4.89506
r494 139 140 16.3169
r495 137 273 20.306
r496 136 137 20.3052
r497 133 246 8.70233
r498 133 136 20.3052
r499 131 132 20.3052
r500 131 272 20.3052
r501 127 246 8.70233
r502 127 132 20.306
r503 126 245 4.89506
r504 125 246 4.89506
r505 125 126 16.3169
r506 123 271 20.306
r507 122 123 20.3052
r508 119 245 8.70233
r509 119 122 20.3052
r510 117 118 20.3052
r511 117 270 20.3052
r512 113 245 8.70233
r513 113 118 20.306
r514 112 244 4.89506
r515 111 245 4.89506
r516 111 112 16.3169
r517 109 269 20.306
r518 108 109 20.3052
r519 105 244 8.70233
r520 105 108 20.3052
r521 103 104 20.3052
r522 103 268 20.3052
r523 99 244 8.70233
r524 99 104 20.306
r525 98 243 4.89506
r526 97 244 4.89506
r527 97 98 16.3169
r528 95 267 20.306
r529 94 95 20.3052
r530 91 243 8.70233
r531 91 94 20.3052
r532 89 90 20.3052
r533 89 266 20.3052
r534 85 243 8.70233
r535 85 90 20.306
r536 84 242 4.89506
r537 83 243 4.89506
r538 83 84 16.3169
r539 81 265 20.306
r540 80 81 20.3052
r541 77 242 8.70233
r542 77 80 20.3052
r543 75 76 20.3052
r544 75 264 20.3052
r545 71 242 8.70233
r546 71 76 20.306
r547 70 241 4.89506
r548 69 242 4.89506
r549 69 70 16.3169
r550 67 263 20.306
r551 66 67 20.3052
r552 63 241 8.70233
r553 63 66 20.3052
r554 61 62 20.3052
r555 61 262 20.3052
r556 57 241 8.70233
r557 57 62 20.306
r558 56 240 4.89506
r559 55 241 4.89506
r560 55 56 16.3169
r561 53 261 20.306
r562 52 53 20.3052
r563 49 240 8.70233
r564 49 52 20.3052
r565 47 48 20.3052
r566 47 260 20.3052
r567 43 240 8.70233
r568 43 48 20.306
r569 42 239 4.89506
r570 41 240 4.89506
r571 41 42 16.3169
r572 39 259 20.306
r573 38 39 20.3052
r574 35 239 8.70233
r575 35 38 20.3052
r576 33 34 20.3052
r577 33 258 20.3052
r578 29 239 8.70233
r579 29 34 20.306
r580 28 238 4.89506
r581 27 239 4.89506
r582 27 28 16.3169
r583 25 257 20.306
r584 24 25 20.3052
r585 21 238 8.70233
r586 21 24 20.3052
r587 19 20 20.3052
r588 19 256 20.3052
r589 15 238 8.70233
r590 15 20 20.306
r591 14 237 0.353334
r592 13 238 4.89506
r593 13 14 16.3169
r594 11 255 20.306
r595 10 11 20.3052
r596 7 237 6.97267
r597 7 10 20.3052
r598 5 6 20.3052
r599 5 254 20.3052
r600 1 237 6.97267
r601 1 6 20.306
.ends

.subckt PM_NOR2D8%OUT 1 5 6 11 12 17 18 23 24 29 30 35 36 41 42 47 48 53 54 59
+ 60 65 66 71 72 77 78 83 84 89 90 95 96 115 117 118 119 120 121 122 123 124 125
+ 126 127 128 129 130 131 132 133
r213 115 116 7.87547
r214 114 115 7.87547
r215 113 114 7.87547
r216 112 113 7.87547
r217 111 112 7.87547
r218 110 111 7.87547
r219 109 110 7.87547
r220 105 120 5.90661
r221 104 105 7.87547
r222 103 104 7.87547
r223 102 103 7.87547
r224 101 102 7.87547
r225 100 101 7.87547
r226 99 100 7.87547
r227 98 99 7.87547
r228 96 133 20.306
r229 95 96 20.3052
r230 92 116 10.4754
r231 92 95 20.3052
r232 90 132 20.306
r233 89 90 20.3052
r234 86 115 10.4754
r235 86 89 20.3052
r236 84 131 20.306
r237 83 84 20.3052
r238 80 114 10.4754
r239 80 83 20.3052
r240 78 130 20.306
r241 77 78 20.3052
r242 74 113 10.4754
r243 74 77 20.3052
r244 72 129 20.306
r245 71 72 20.3052
r246 68 112 10.4754
r247 68 71 20.3052
r248 66 128 20.306
r249 65 66 20.3052
r250 62 111 10.4754
r251 62 65 20.3052
r252 60 127 20.306
r253 59 60 20.3052
r254 56 110 10.4754
r255 56 59 20.3052
r256 54 126 20.306
r257 53 54 20.3052
r258 50 109 10.4754
r259 50 53 20.3052
r260 48 125 20.306
r261 47 48 20.3052
r262 44 105 10.4754
r263 44 47 20.3052
r264 42 124 20.306
r265 41 42 20.3052
r266 38 104 10.4754
r267 38 41 20.3052
r268 36 123 20.306
r269 35 36 20.3052
r270 32 103 10.4754
r271 32 35 20.3052
r272 30 122 20.306
r273 29 30 20.3052
r274 26 102 10.4754
r275 26 29 20.3052
r276 24 121 20.306
r277 23 24 20.3052
r278 20 101 10.4754
r279 20 23 20.3052
r280 18 119 20.306
r281 17 18 20.3052
r282 14 100 10.4754
r283 14 17 20.3052
r284 12 118 20.306
r285 11 12 20.3052
r286 8 99 10.4754
r287 8 11 20.3052
r288 6 117 20.306
r289 5 6 20.3052
r290 2 98 10.4754
r291 2 5 20.3052
r292 1 109 0.954901
r293 1 120 1.01397
.ends

.subckt PM_NOR2D8%VDD 1 6 11 14 19 22 27 30 35 38 43 46 51 54 59 62 67 70 75 78
+ 83 86 91 94 99 102 107 110 115 118 123 126 131 135 140 143 148 151 156 159 164
+ 167 172 175 180 183 188 191 196 199 204 207 212 215 220 223 228 231 236 239
+ 244 247 252 255 260 295 296 297 298 299 300 301 302 303 304 305 306 307 308
+ 309 310 311 312 313 314 315 316 317 318 319 320 321 322 323 324 325 326
r416 259 260 20.3052
r417 259 326 20.3052
r418 255 294 1.43649
r419 255 260 20.306
r420 254 293 5.52744
r421 253 294 5.52744
r422 253 254 21.7558
r423 251 252 20.3052
r424 251 325 20.3052
r425 247 293 1.43649
r426 247 252 20.306
r427 246 292 5.52744
r428 245 293 5.52744
r429 245 246 21.7558
r430 243 244 20.3052
r431 243 324 20.3052
r432 239 292 1.43649
r433 239 244 20.306
r434 238 291 5.52744
r435 237 292 5.52744
r436 237 238 21.7558
r437 235 236 20.3052
r438 235 323 20.3052
r439 231 291 1.43649
r440 231 236 20.306
r441 230 290 5.52744
r442 229 291 5.52744
r443 229 230 21.7558
r444 227 228 20.3052
r445 227 322 20.3052
r446 223 290 1.43649
r447 223 228 20.306
r448 222 289 5.52744
r449 221 290 5.52744
r450 221 222 21.7558
r451 219 220 20.3052
r452 219 321 20.3052
r453 215 289 1.43649
r454 215 220 20.306
r455 214 288 5.52744
r456 213 289 5.52744
r457 213 214 21.7558
r458 211 212 20.3052
r459 211 320 20.3052
r460 207 288 1.43649
r461 207 212 20.306
r462 206 287 5.52744
r463 205 288 5.52744
r464 205 206 21.7558
r465 203 204 20.3052
r466 203 319 20.3052
r467 199 287 1.43649
r468 199 204 20.306
r469 198 286 5.52744
r470 197 287 5.52744
r471 197 198 21.7558
r472 195 196 20.3052
r473 195 318 20.3052
r474 191 286 1.43649
r475 191 196 20.306
r476 190 285 5.52744
r477 189 286 5.52744
r478 189 190 21.7558
r479 187 188 20.3052
r480 187 317 20.3052
r481 183 285 1.43649
r482 183 188 20.306
r483 182 284 5.52744
r484 181 285 5.52744
r485 181 182 21.7558
r486 179 180 20.3052
r487 179 316 20.3052
r488 175 284 1.43649
r489 175 180 20.306
r490 174 283 5.52744
r491 173 284 5.52744
r492 173 174 21.7558
r493 171 172 20.3052
r494 171 315 20.3052
r495 167 283 1.43649
r496 167 172 20.306
r497 166 282 5.52744
r498 165 283 5.52744
r499 165 166 21.7558
r500 163 164 20.3052
r501 163 314 20.3052
r502 159 282 1.43649
r503 159 164 20.306
r504 158 281 5.52744
r505 157 282 5.52744
r506 157 158 21.7558
r507 155 156 20.3052
r508 155 313 20.3052
r509 151 281 1.43649
r510 151 156 20.306
r511 150 280 5.52744
r512 149 281 5.52744
r513 149 150 21.7558
r514 147 148 20.3052
r515 147 312 20.3052
r516 143 280 1.43649
r517 143 148 20.306
r518 142 279 5.52744
r519 141 280 5.52744
r520 141 142 21.7558
r521 139 140 20.3052
r522 139 311 20.3052
r523 135 279 1.43649
r524 135 140 20.306
r525 133 278 5.52744
r526 132 279 5.52744
r527 130 131 20.3052
r528 130 310 20.3052
r529 126 278 1.43649
r530 126 131 20.306
r531 125 277 5.52744
r532 124 278 5.52744
r533 124 125 21.7558
r534 122 123 20.3052
r535 122 309 20.3052
r536 118 277 1.43649
r537 118 123 20.306
r538 117 276 5.52744
r539 116 277 5.52744
r540 116 117 21.7558
r541 114 115 20.3052
r542 114 308 20.3052
r543 110 276 1.43649
r544 110 115 20.306
r545 109 275 5.52744
r546 108 276 5.52744
r547 108 109 21.7558
r548 106 107 20.3052
r549 106 307 20.3052
r550 102 275 1.43649
r551 102 107 20.306
r552 101 274 5.52744
r553 100 275 5.52744
r554 100 101 21.7558
r555 98 99 20.3052
r556 98 306 20.3052
r557 94 274 1.43649
r558 94 99 20.306
r559 93 273 5.52744
r560 92 274 5.52744
r561 92 93 21.7558
r562 90 91 20.3052
r563 90 305 20.3052
r564 86 273 1.43649
r565 86 91 20.306
r566 85 272 5.52744
r567 84 273 5.52744
r568 84 85 21.7558
r569 82 83 20.3052
r570 82 304 20.3052
r571 78 272 1.43649
r572 78 83 20.306
r573 77 271 5.52744
r574 76 272 5.52744
r575 76 77 21.7558
r576 74 75 20.3052
r577 74 303 20.3052
r578 70 271 1.43649
r579 70 75 20.306
r580 69 270 5.52744
r581 68 271 5.52744
r582 68 69 21.7558
r583 66 67 20.3052
r584 66 302 20.3052
r585 62 270 1.43649
r586 62 67 20.306
r587 61 269 5.52744
r588 60 270 5.52744
r589 60 61 21.7558
r590 58 59 20.3052
r591 58 301 20.3052
r592 54 269 1.43649
r593 54 59 20.306
r594 53 268 5.52744
r595 52 269 5.52744
r596 52 53 21.7558
r597 50 51 20.3052
r598 50 300 20.3052
r599 46 268 1.43649
r600 46 51 20.306
r601 45 267 5.52744
r602 44 268 5.52744
r603 44 45 21.7558
r604 42 43 20.3052
r605 42 299 20.3052
r606 38 267 1.43649
r607 38 43 20.306
r608 37 266 5.52744
r609 36 267 5.52744
r610 36 37 21.7558
r611 34 35 20.3052
r612 34 298 20.3052
r613 30 266 1.43649
r614 30 35 20.306
r615 29 265 5.52744
r616 28 266 5.52744
r617 28 29 21.7558
r618 26 27 20.3052
r619 26 297 20.3052
r620 22 265 1.43649
r621 22 27 20.306
r622 21 264 5.52744
r623 20 265 5.52744
r624 20 21 21.7558
r625 18 19 20.3052
r626 18 296 20.3052
r627 14 264 1.43649
r628 14 19 20.306
r629 13 263 5.52744
r630 12 264 5.52744
r631 12 13 21.7558
r632 10 11 20.3052
r633 10 295 20.3052
r634 6 263 1.43649
r635 6 11 20.306
r636 1 132 23.5833
r637 1 133 28.6307
.ends

.subckt PM_NOR2D8%net12 1 6 10 11 15 20 24 25 29 34 38 39 43 48 52 53 57 62 66
+ 67 71 76 80 81 85 90 94 95 99 104 108 109 113 118 122 123 127 132 136 137 141
+ 146 150 151 155 160 164 165 169 174 178 179 183 188 192 193 197 202 206 207
+ 211 216 220 221 225 230 234 235 254 255 256 257 258 259 260 261 262 263 264
+ 265 266 267 268 269 270 271 272 273 274 275 276 277 278 279 280 281 282 283
+ 284 285 286 287
r418 235 287 20.306
r419 234 235 20.3052
r420 231 253 6.97267
r421 231 234 20.3052
r422 229 230 20.3052
r423 229 286 20.3052
r424 225 253 6.97267
r425 225 230 20.306
r426 224 252 4.89506
r427 223 253 0.353334
r428 223 224 16.3169
r429 221 285 20.306
r430 220 221 20.3052
r431 217 252 8.70233
r432 217 220 20.3052
r433 215 216 20.3052
r434 215 284 20.3052
r435 211 252 8.70233
r436 211 216 20.306
r437 210 251 4.89506
r438 209 252 4.89506
r439 209 210 16.3169
r440 207 283 20.306
r441 206 207 20.3052
r442 203 251 8.70233
r443 203 206 20.3052
r444 201 202 20.3052
r445 201 282 20.3052
r446 197 251 8.70233
r447 197 202 20.306
r448 196 250 4.89506
r449 195 251 4.89506
r450 195 196 16.3169
r451 193 281 20.306
r452 192 193 20.3052
r453 189 250 8.70233
r454 189 192 20.3052
r455 187 188 20.3052
r456 187 280 20.3052
r457 183 250 8.70233
r458 183 188 20.306
r459 182 249 4.89506
r460 181 250 4.89506
r461 181 182 16.3169
r462 179 279 20.306
r463 178 179 20.3052
r464 175 249 8.70233
r465 175 178 20.3052
r466 173 174 20.3052
r467 173 278 20.3052
r468 169 249 8.70233
r469 169 174 20.306
r470 168 248 4.89506
r471 167 249 4.89506
r472 167 168 16.3169
r473 165 277 20.306
r474 164 165 20.3052
r475 161 248 8.70233
r476 161 164 20.3052
r477 159 160 20.3052
r478 159 276 20.3052
r479 155 248 8.70233
r480 155 160 20.306
r481 154 247 4.89506
r482 153 248 4.89506
r483 153 154 16.3169
r484 151 275 20.306
r485 150 151 20.3052
r486 147 247 8.70233
r487 147 150 20.3052
r488 145 146 20.3052
r489 145 274 20.3052
r490 141 247 8.70233
r491 141 146 20.306
r492 140 246 4.89506
r493 139 247 4.89506
r494 139 140 16.3169
r495 137 273 20.306
r496 136 137 20.3052
r497 133 246 8.70233
r498 133 136 20.3052
r499 131 132 20.3052
r500 131 272 20.3052
r501 127 246 8.70233
r502 127 132 20.306
r503 126 245 4.89506
r504 125 246 4.89506
r505 125 126 16.3169
r506 123 271 20.306
r507 122 123 20.3052
r508 119 245 8.70233
r509 119 122 20.3052
r510 117 118 20.3052
r511 117 270 20.3052
r512 113 245 8.70233
r513 113 118 20.306
r514 112 244 4.89506
r515 111 245 4.89506
r516 111 112 16.3169
r517 109 269 20.306
r518 108 109 20.3052
r519 105 244 8.70233
r520 105 108 20.3052
r521 103 104 20.3052
r522 103 268 20.3052
r523 99 244 8.70233
r524 99 104 20.306
r525 98 243 4.89506
r526 97 244 4.89506
r527 97 98 16.3169
r528 95 267 20.306
r529 94 95 20.3052
r530 91 243 8.70233
r531 91 94 20.3052
r532 89 90 20.3052
r533 89 266 20.3052
r534 85 243 8.70233
r535 85 90 20.306
r536 84 242 4.89506
r537 83 243 4.89506
r538 83 84 16.3169
r539 81 265 20.306
r540 80 81 20.3052
r541 77 242 8.70233
r542 77 80 20.3052
r543 75 76 20.3052
r544 75 264 20.3052
r545 71 242 8.70233
r546 71 76 20.306
r547 70 241 4.89506
r548 69 242 4.89506
r549 69 70 16.3169
r550 67 263 20.306
r551 66 67 20.3052
r552 63 241 8.70233
r553 63 66 20.3052
r554 61 62 20.3052
r555 61 262 20.3052
r556 57 241 8.70233
r557 57 62 20.306
r558 56 240 4.89506
r559 55 241 4.89506
r560 55 56 16.3169
r561 53 261 20.306
r562 52 53 20.3052
r563 49 240 8.70233
r564 49 52 20.3052
r565 47 48 20.3052
r566 47 260 20.3052
r567 43 240 8.70233
r568 43 48 20.306
r569 42 239 4.89506
r570 41 240 4.89506
r571 41 42 16.3169
r572 39 259 20.306
r573 38 39 20.3052
r574 35 239 8.70233
r575 35 38 20.3052
r576 33 34 20.3052
r577 33 258 20.3052
r578 29 239 8.70233
r579 29 34 20.306
r580 28 238 4.89506
r581 27 239 4.89506
r582 27 28 16.3169
r583 25 257 20.306
r584 24 25 20.3052
r585 21 238 8.70233
r586 21 24 20.3052
r587 19 20 20.3052
r588 19 256 20.3052
r589 15 238 8.70233
r590 15 20 20.306
r591 14 237 0.353334
r592 13 238 4.89506
r593 13 14 16.3169
r594 11 255 20.306
r595 10 11 20.3052
r596 7 237 6.97267
r597 7 10 20.3052
r598 5 6 20.3052
r599 5 254 20.3052
r600 1 237 6.97267
r601 1 6 20.306
.ends

.subckt PM_NOR2D8%IN2 15 18 21 22 24 26 29 30 32 33 34 37 38 40 46 48 54 56 58
+ 61 62 64 65 66 69 70 72 78 80 86 88 90 93 94 96 97 98 101 102 104 110 112 118
+ 120 122 125 126 128 129 130 133 134 136 142 144 150 152 154 157 158 160 161
+ 162 165 166 168 174 176 182 184 186 189 190 192 193 194 197 198 200 206 208
+ 214 216 218 221 222 224 225 226 229 230 232 238 240 246 248 250 253 254 256
+ 257 258 261 262 264 270 272 278 281 282 284 286 289 290 292 293 294 297 298
+ 300 306 308 314 316 318 321 322 324 325 326 329 330 332 338 340 346 348 350
+ 353 354 356 357 358 361 362 364 370 372 378 380 382 385 386 388 389 390 393
+ 394 396 402 404 410 412 414 417 418 420 421 422 425 426 428 434 436 442 444
+ 446 449 450 452 453 454 457 458 460 466 468 474 476 478 481 482 484 485 486
+ 489 490 492 498 500 506 508 510 513 514 516 517 518 521 522 524 530 532 727
+ 728 729 730 731 732 733 734 735 736 737 738 739 740 741 742 743 744 745 746
+ 747 748 749 750 751 752 753 754 755 756 757 758 759 760 761 762 763 764 765
+ 766 767 768 769 770 771 772 773 774 775 776 777 778 779 780 781 782 783 784
+ 785 786 787 788 789 790 791
r826 799 801 0.2952
r827 793 796 0.2952
r828 791 799 0.16974
r829 791 796 0.12546
r830 531 532 0.62445
r831 531 790 0.62445
r832 530 790 0.624484
r833 529 530 0.62445
r834 526 532 0.624484
r835 525 529 0.62445
r836 523 524 0.62445
r837 523 789 0.62445
r838 522 789 0.624484
r839 521 522 0.62445
r840 518 526 0.8856
r841 518 524 0.624484
r842 517 525 0.8856
r843 517 521 0.62445
r844 515 516 0.62445
r845 515 788 0.62445
r846 514 788 0.624484
r847 513 514 0.62445
r848 510 518 0.8856
r849 510 516 0.624484
r850 509 517 0.8856
r851 509 513 0.62445
r852 507 508 0.62445
r853 507 787 0.62445
r854 506 787 0.624484
r855 505 506 0.62445
r856 502 510 0.8856
r857 502 508 0.624484
r858 501 509 0.8856
r859 501 505 0.62445
r860 499 500 0.62445
r861 499 786 0.62445
r862 498 786 0.624484
r863 497 498 0.62445
r864 494 502 0.8856
r865 494 500 0.624484
r866 493 501 0.8856
r867 493 497 0.62445
r868 491 492 0.62445
r869 491 785 0.62445
r870 490 785 0.624484
r871 489 490 0.62445
r872 486 494 0.8856
r873 486 492 0.624484
r874 485 493 0.8856
r875 485 489 0.62445
r876 483 484 0.62445
r877 483 784 0.62445
r878 482 784 0.624484
r879 481 482 0.62445
r880 478 486 0.8856
r881 478 484 0.624484
r882 477 485 0.8856
r883 477 481 0.62445
r884 475 476 0.62445
r885 475 783 0.62445
r886 474 783 0.624484
r887 473 474 0.62445
r888 470 478 0.8856
r889 470 476 0.624484
r890 469 477 0.8856
r891 469 473 0.62445
r892 467 468 0.62445
r893 467 782 0.62445
r894 466 782 0.624484
r895 465 466 0.62445
r896 462 470 0.8856
r897 462 468 0.624484
r898 461 469 0.8856
r899 461 465 0.62445
r900 459 460 0.62445
r901 459 781 0.62445
r902 458 781 0.624484
r903 457 458 0.62445
r904 454 462 0.8856
r905 454 460 0.624484
r906 453 461 0.8856
r907 453 457 0.62445
r908 451 452 0.62445
r909 451 780 0.62445
r910 450 780 0.624484
r911 449 450 0.62445
r912 446 454 0.8856
r913 446 452 0.624484
r914 445 453 0.8856
r915 445 449 0.62445
r916 443 444 0.62445
r917 443 779 0.62445
r918 442 779 0.624484
r919 441 442 0.62445
r920 438 446 0.8856
r921 438 444 0.624484
r922 437 445 0.8856
r923 437 441 0.62445
r924 435 436 0.62445
r925 435 778 0.62445
r926 434 778 0.624484
r927 433 434 0.62445
r928 430 438 0.8856
r929 430 436 0.624484
r930 429 437 0.8856
r931 429 433 0.62445
r932 427 428 0.62445
r933 427 777 0.62445
r934 426 777 0.624484
r935 425 426 0.62445
r936 422 430 0.8856
r937 422 428 0.624484
r938 421 429 0.8856
r939 421 425 0.62445
r940 419 420 0.62445
r941 419 776 0.62445
r942 418 776 0.624484
r943 417 418 0.62445
r944 414 422 0.8856
r945 414 420 0.624484
r946 413 421 0.8856
r947 413 417 0.62445
r948 411 412 0.62445
r949 411 775 0.62445
r950 410 775 0.624484
r951 409 410 0.62445
r952 406 414 0.8856
r953 406 412 0.624484
r954 405 413 0.8856
r955 405 409 0.62445
r956 403 404 0.62445
r957 403 774 0.62445
r958 402 774 0.624484
r959 401 402 0.62445
r960 398 406 0.8856
r961 398 404 0.624484
r962 397 405 0.8856
r963 397 401 0.62445
r964 395 396 0.62445
r965 395 773 0.62445
r966 394 773 0.624484
r967 393 394 0.62445
r968 390 398 0.8856
r969 390 396 0.624484
r970 389 397 0.8856
r971 389 393 0.62445
r972 387 388 0.62445
r973 387 772 0.62445
r974 386 772 0.624484
r975 385 386 0.62445
r976 382 390 0.8856
r977 382 388 0.624484
r978 381 389 0.8856
r979 381 385 0.62445
r980 379 380 0.62445
r981 379 771 0.62445
r982 378 771 0.624484
r983 377 378 0.62445
r984 374 382 0.8856
r985 374 380 0.624484
r986 373 381 0.8856
r987 373 377 0.62445
r988 371 372 0.62445
r989 371 770 0.62445
r990 370 770 0.624484
r991 369 370 0.62445
r992 366 374 0.8856
r993 366 372 0.624484
r994 365 373 0.8856
r995 365 369 0.62445
r996 363 364 0.62445
r997 363 769 0.62445
r998 362 769 0.624484
r999 361 362 0.62445
r1000 358 366 0.8856
r1001 358 364 0.624484
r1002 357 365 0.8856
r1003 357 361 0.62445
r1004 355 356 0.62445
r1005 355 768 0.62445
r1006 354 768 0.624484
r1007 353 354 0.62445
r1008 350 358 0.8856
r1009 350 356 0.624484
r1010 349 357 0.8856
r1011 349 353 0.62445
r1012 347 348 0.62445
r1013 347 767 0.62445
r1014 346 767 0.624484
r1015 345 346 0.62445
r1016 342 350 0.8856
r1017 342 348 0.624484
r1018 341 349 0.8856
r1019 341 345 0.62445
r1020 339 340 0.62445
r1021 339 766 0.62445
r1022 338 766 0.624484
r1023 337 338 0.62445
r1024 334 342 0.8856
r1025 334 340 0.624484
r1026 333 341 0.8856
r1027 333 337 0.62445
r1028 331 332 0.62445
r1029 331 765 0.62445
r1030 330 765 0.624484
r1031 329 330 0.62445
r1032 326 334 0.8856
r1033 326 332 0.624484
r1034 325 333 0.8856
r1035 325 329 0.62445
r1036 323 324 0.62445
r1037 323 764 0.62445
r1038 322 764 0.624484
r1039 321 322 0.62445
r1040 318 326 0.8856
r1041 318 324 0.624484
r1042 317 325 0.8856
r1043 317 321 0.62445
r1044 315 316 0.62445
r1045 315 763 0.62445
r1046 314 763 0.624484
r1047 313 314 0.62445
r1048 310 318 0.8856
r1049 310 316 0.624484
r1050 309 317 0.8856
r1051 309 313 0.62445
r1052 307 308 0.62445
r1053 307 762 0.62445
r1054 306 762 0.624484
r1055 305 306 0.62445
r1056 302 310 0.8856
r1057 302 308 0.624484
r1058 301 309 0.8856
r1059 301 305 0.62445
r1060 299 300 0.62445
r1061 299 761 0.62445
r1062 298 761 0.624484
r1063 297 298 0.62445
r1064 294 302 0.8856
r1065 294 300 0.624484
r1066 293 301 0.8856
r1067 293 297 0.62445
r1068 291 292 0.62445
r1069 291 760 0.62445
r1070 290 760 0.624484
r1071 289 290 0.62445
r1072 286 294 0.8856
r1073 286 292 0.624484
r1074 285 293 0.8856
r1075 285 289 0.62445
r1076 283 284 0.62445
r1077 283 759 0.62445
r1078 282 759 0.624484
r1079 281 282 0.62445
r1080 278 286 0.8856
r1081 278 284 0.624484
r1082 277 285 0.8856
r1083 277 281 0.62445
r1084 275 278 0.28782
r1085 275 276 1.85976
r1086 273 277 0.28782
r1087 273 274 1.85976
r1088 271 272 0.62445
r1089 271 758 0.62445
r1090 270 758 0.624484
r1091 269 270 0.62445
r1092 266 276 0.28782
r1093 266 272 0.624484
r1094 265 274 0.28782
r1095 265 269 0.62445
r1096 263 264 0.62445
r1097 263 757 0.62445
r1098 262 757 0.624484
r1099 261 262 0.62445
r1100 258 266 0.8856
r1101 258 264 0.624484
r1102 257 265 0.8856
r1103 257 261 0.62445
r1104 255 256 0.62445
r1105 255 756 0.62445
r1106 254 756 0.624484
r1107 253 254 0.62445
r1108 250 258 0.8856
r1109 250 256 0.624484
r1110 249 257 0.8856
r1111 249 253 0.62445
r1112 247 248 0.62445
r1113 247 755 0.62445
r1114 246 755 0.624484
r1115 245 246 0.62445
r1116 242 250 0.8856
r1117 242 248 0.624484
r1118 241 249 0.8856
r1119 241 245 0.62445
r1120 239 240 0.62445
r1121 239 754 0.62445
r1122 238 754 0.624484
r1123 237 238 0.62445
r1124 234 242 0.8856
r1125 234 240 0.624484
r1126 233 241 0.8856
r1127 233 237 0.62445
r1128 231 232 0.62445
r1129 231 753 0.62445
r1130 230 753 0.624484
r1131 229 230 0.62445
r1132 226 234 0.8856
r1133 226 232 0.624484
r1134 225 233 0.8856
r1135 225 229 0.62445
r1136 223 224 0.62445
r1137 223 752 0.62445
r1138 222 752 0.624484
r1139 221 222 0.62445
r1140 218 226 0.8856
r1141 218 224 0.624484
r1142 217 225 0.8856
r1143 217 221 0.62445
r1144 215 216 0.62445
r1145 215 751 0.62445
r1146 214 751 0.624484
r1147 213 214 0.62445
r1148 210 218 0.8856
r1149 210 216 0.624484
r1150 209 217 0.8856
r1151 209 213 0.62445
r1152 207 208 0.62445
r1153 207 750 0.62445
r1154 206 750 0.624484
r1155 205 206 0.62445
r1156 202 210 0.8856
r1157 202 208 0.624484
r1158 201 209 0.8856
r1159 201 205 0.62445
r1160 199 200 0.62445
r1161 199 749 0.62445
r1162 198 749 0.624484
r1163 197 198 0.62445
r1164 194 202 0.8856
r1165 194 200 0.624484
r1166 193 201 0.8856
r1167 193 197 0.62445
r1168 191 192 0.62445
r1169 191 748 0.62445
r1170 190 748 0.624484
r1171 189 190 0.62445
r1172 186 194 0.8856
r1173 186 192 0.624484
r1174 185 193 0.8856
r1175 185 189 0.62445
r1176 183 184 0.62445
r1177 183 747 0.62445
r1178 182 747 0.624484
r1179 181 182 0.62445
r1180 178 186 0.8856
r1181 178 184 0.624484
r1182 177 185 0.8856
r1183 177 181 0.62445
r1184 175 176 0.62445
r1185 175 746 0.62445
r1186 174 746 0.624484
r1187 173 174 0.62445
r1188 170 178 0.8856
r1189 170 176 0.624484
r1190 169 177 0.8856
r1191 169 173 0.62445
r1192 167 168 0.62445
r1193 167 745 0.62445
r1194 166 745 0.624484
r1195 165 166 0.62445
r1196 162 170 0.8856
r1197 162 168 0.624484
r1198 161 169 0.8856
r1199 161 165 0.62445
r1200 159 160 0.62445
r1201 159 744 0.62445
r1202 158 744 0.624484
r1203 157 158 0.62445
r1204 154 162 0.8856
r1205 154 160 0.624484
r1206 153 161 0.8856
r1207 153 157 0.62445
r1208 151 152 0.62445
r1209 151 743 0.62445
r1210 150 743 0.624484
r1211 149 150 0.62445
r1212 146 154 0.8856
r1213 146 152 0.624484
r1214 145 153 0.8856
r1215 145 149 0.62445
r1216 143 144 0.62445
r1217 143 742 0.62445
r1218 142 742 0.624484
r1219 141 142 0.62445
r1220 138 146 0.8856
r1221 138 144 0.624484
r1222 137 145 0.8856
r1223 137 141 0.62445
r1224 135 136 0.62445
r1225 135 741 0.62445
r1226 134 741 0.624484
r1227 133 134 0.62445
r1228 130 138 0.8856
r1229 130 136 0.624484
r1230 129 137 0.8856
r1231 129 133 0.62445
r1232 127 128 0.62445
r1233 127 740 0.62445
r1234 126 740 0.624484
r1235 125 126 0.62445
r1236 122 130 0.8856
r1237 122 128 0.624484
r1238 121 129 0.8856
r1239 121 125 0.62445
r1240 119 120 0.62445
r1241 119 739 0.62445
r1242 118 739 0.624484
r1243 117 118 0.62445
r1244 114 122 0.8856
r1245 114 120 0.624484
r1246 113 121 0.8856
r1247 113 117 0.62445
r1248 111 112 0.62445
r1249 111 738 0.62445
r1250 110 738 0.624484
r1251 109 110 0.62445
r1252 106 114 0.8856
r1253 106 112 0.624484
r1254 105 113 0.8856
r1255 105 109 0.62445
r1256 103 104 0.62445
r1257 103 737 0.62445
r1258 102 737 0.624484
r1259 101 102 0.62445
r1260 98 106 0.8856
r1261 98 104 0.624484
r1262 97 105 0.8856
r1263 97 101 0.62445
r1264 95 96 0.62445
r1265 95 736 0.62445
r1266 94 736 0.624484
r1267 93 94 0.62445
r1268 90 98 0.8856
r1269 90 96 0.624484
r1270 89 97 0.8856
r1271 89 93 0.62445
r1272 87 88 0.62445
r1273 87 735 0.62445
r1274 86 735 0.624484
r1275 85 86 0.62445
r1276 82 90 0.8856
r1277 82 88 0.624484
r1278 81 89 0.8856
r1279 81 85 0.62445
r1280 79 80 0.62445
r1281 79 734 0.62445
r1282 78 734 0.624484
r1283 77 78 0.62445
r1284 74 82 0.8856
r1285 74 80 0.624484
r1286 73 81 0.8856
r1287 73 77 0.62445
r1288 71 72 0.62445
r1289 71 733 0.62445
r1290 70 733 0.624484
r1291 69 70 0.62445
r1292 66 74 0.8856
r1293 66 72 0.624484
r1294 65 73 0.8856
r1295 65 69 0.62445
r1296 63 64 0.62445
r1297 63 732 0.62445
r1298 62 732 0.624484
r1299 61 62 0.62445
r1300 58 66 0.8856
r1301 58 64 0.624484
r1302 57 65 0.8856
r1303 57 61 0.62445
r1304 55 56 0.62445
r1305 55 731 0.62445
r1306 54 731 0.624484
r1307 53 54 0.62445
r1308 50 58 0.8856
r1309 50 56 0.624484
r1310 49 57 0.8856
r1311 49 53 0.62445
r1312 47 48 0.62445
r1313 47 730 0.62445
r1314 46 730 0.624484
r1315 45 46 0.62445
r1316 42 50 0.8856
r1317 42 48 0.624484