* File: BUFD8.cdl.pex
* Created: Sat Dec 27 13:06:45 2025
* Program "Calibre xRC"
* Version "v2023.1_18.8"
* Nominal Temperature: 25C
* Circuit Temperature: 25C
* 
.subckt PM_BUFD8%net3 37 41 62 76 78 85 88 95 96 98 105 108 115 116 118 125 128
+ 135 136 138 145 148 155 156 158 165 168 175 176 178 185 188 195 196 198 205
+ 208 215 216 218 225 228 235 267 268 269 270 271 272 273 274 275 276 277 278
+ 279 280 281 282 283 284 285 286 287 288 289 290 291
r154 300 303 0.0984
r155 297 300 0.0984
r156 293 297 0.0984
r157 234 235 0.62445
r158 234 282 0.62445
r159 228 235 0.624484
r160 227 250 0.231882
r161 226 228 0.252919
r162 226 227 0.53136
r163 224 225 0.62445
r164 224 281 0.62445
r165 218 250 0.0151417
r166 218 225 0.624484
r167 217 249 0.231882
r168 216 250 0.231882
r169 216 217 0.53136
r170 214 215 0.62445
r171 214 280 0.62445
r172 208 249 0.0151417
r173 208 215 0.624484
r174 207 248 0.231882
r175 206 249 0.231882
r176 206 207 0.53136
r177 204 205 0.62445
r178 204 279 0.62445
r179 198 248 0.0151417
r180 198 205 0.624484
r181 197 247 0.231882
r182 196 248 0.231882
r183 196 197 0.53136
r184 194 195 0.62445
r185 194 278 0.62445
r186 188 247 0.0151417
r187 188 195 0.624484
r188 187 246 0.231882
r189 186 247 0.231882
r190 186 187 0.53136
r191 184 185 0.62445
r192 184 277 0.62445
r193 178 246 0.0151417
r194 178 185 0.624484
r195 177 245 0.231882
r196 176 246 0.231882
r197 176 177 0.53136
r198 174 175 0.62445
r199 174 276 0.62445
r200 168 245 0.0151417
r201 168 175 0.624484
r202 167 244 0.231882
r203 166 245 0.231882
r204 166 167 0.53136
r205 164 165 0.62445
r206 164 275 0.62445
r207 158 244 0.0151417
r208 158 165 0.624484
r209 157 243 0.231882
r210 156 244 0.231882
r211 156 157 0.53136
r212 154 155 0.62445
r213 154 274 0.62445
r214 148 243 0.0151417
r215 148 155 0.624484
r216 147 242 0.231882
r217 146 243 0.231882
r218 146 147 0.53136
r219 144 145 0.62445
r220 144 273 0.62445
r221 138 242 0.0151417
r222 138 145 0.624484
r223 137 241 0.231882
r224 136 242 0.231882
r225 136 137 0.53136
r226 134 135 0.62445
r227 134 272 0.62445
r228 128 241 0.0151417
r229 128 135 0.624484
r230 127 240 0.231882
r231 126 241 0.231882
r232 126 127 0.53136
r233 124 125 0.62445
r234 124 271 0.62445
r235 118 240 0.0151417
r236 118 125 0.624484
r237 117 239 0.231882
r238 116 240 0.231882
r239 116 117 0.53136
r240 114 115 0.62445
r241 114 270 0.62445
r242 108 239 0.0151417
r243 108 115 0.624484
r244 107 238 0.231882
r245 106 239 0.231882
r246 106 107 0.53136
r247 104 105 0.62445
r248 104 269 0.62445
r249 98 238 0.0151417
r250 98 105 0.624484
r251 97 237 0.231882
r252 96 238 0.231882
r253 96 97 0.53136
r254 94 95 0.62445
r255 94 268 0.62445
r256 88 237 0.0151417
r257 88 95 0.624484
r258 87 236 0.231882
r259 86 237 0.231882
r260 86 87 0.53136
r261 84 85 0.62445
r262 84 267 0.62445
r263 78 236 0.0151417
r264 78 85 0.624484
r265 76 236 0.231882
r266 76 77 0.92988
r267 74 303 1
r268 72 300 1
r269 72 74 0.2952
r270 70 297 1
r271 70 72 0.2952
r272 67 68 0.9594
r273 66 293 1
r274 66 70 0.2952
r275 66 68 0.9594
r276 64 77 0.260498
r277 64 67 0.9594
r278 62 63 1.15433
r279 62 291 13.6032
r280 59 62 3.07822
r281 59 290 10.1814
r282 58 59 3.84777
r283 58 289 10.1814
r284 56 58 7.69555
r285 56 288 10.1814
r286 53 56 0.769555
r287 53 287 10.1814
r288 52 53 6.926
r289 52 286 10.1814
r290 49 52 5.38689
r291 49 285 10.1814
r292 48 49 1.53911
r293 48 284 15.2867
r294 46 48 0.769555
r295 41 303 1
r296 41 291 7.17942
r297 39 300 1
r298 39 41 5.2214
r299 37 297 1
r300 37 39 5.2214
r301 35 293 1
r302 35 63 8.62641
r303 35 37 5.2214
r304 29 59 10.1814
r305 29 290 13.0535
r306 25 58 10.1814
r307 25 289 29.3704
r308 21 56 10.1814
r309 21 288 29.3704
r310 17 53 10.1814
r311 17 287 13.0535
r312 13 52 10.1814
r313 13 286 29.3704
r314 9 49 10.1814
r315 9 285 13.0535
r316 5 46 10.1814
r317 5 284 29.3704
r318 1 46 10.0042
r319 1 283 10.1814
r320 1 283 13.0535
.ends

.subckt PM_BUFD8%VSS 1 552 553 554 555 556 557 558 559 560 561 562 563 564 565
+ 566 567 568 569 570 571 572 573 574 575 576 577 578 579 580 581 582 583 584
+ 585 586 587 588 589 590 591 592 593
r128 616 619 0.126514
r129 613 616 0.126514
r130 609 613 0.126514
r131 602 605 0.126514
r132 599 602 0.126514
r133 595 599 0.126514
r134 521 619 1
r135 519 616 1
r136 519 521 0.2952
r137 517 613 1
r138 517 519 0.2952
r139 514 609 1
r140 514 517 0.2952
r141 512 521 0.2214
r142 511 535 0.397738
r143 510 512 0.260498
r144 510 511 0.8856
r145 506 535 0.0706443
r146 506 567 0.474429
r147 505 534 0.397738
r148 504 535 0.397738
r149 504 505 0.53136
r150 500 534 0.0706443
r151 500 566 0.474429
r152 499 533 0.397738
r153 498 534 0.397738
r154 498 499 0.53136
r155 494 533 0.0706443
r156 494 565 0.474429
r157 493 532 0.397738
r158 492 533 0.397738
r159 492 493 0.53136
r160 488 532 0.0706443
r161 488 564 0.474429
r162 487 531 0.397738
r163 486 532 0.397738
r164 486 487 0.53136
r165 482 531 0.0706443
r166 482 563 0.474429
r167 481 530 0.397738
r168 480 531 0.397738
r169 480 481 0.53136
r170 476 530 0.0706443
r171 476 562 0.474429
r172 475 529 0.397738
r173 474 530 0.397738
r174 474 475 0.53136
r175 470 529 0.0706443
r176 470 561 0.474429
r177 468 529 0.397738
r178 468 469 0.53136
r179 464 469 0.327655
r180 464 560 0.474429
r181 463 605 1
r182 461 602 1
r183 461 463 0.2952
r184 459 599 1
r185 459 461 0.2952
r186 456 595 1
r187 456 459 0.2952
r188 454 463 0.2214
r189 453 528 0.397738
r190 452 454 0.260498
r191 452 453 0.8856
r192 448 528 0.0706443
r193 448 559 0.474429
r194 447 527 0.397738
r195 446 528 0.397738
r196 446 447 0.53136
r197 442 527 0.0706443
r198 442 558 0.474429
r199 441 526 0.397738
r200 440 527 0.397738
r201 440 441 0.53136
r202 436 526 0.0706443
r203 436 557 0.474429
r204 435 525 0.397738
r205 434 526 0.397738
r206 434 435 0.53136
r207 430 525 0.0706443
r208 430 556 0.474429
r209 429 524 0.397738
r210 428 525 0.397738
r211 428 429 0.53136
r212 424 524 0.0706443
r213 424 555 0.474429
r214 423 523 0.397738
r215 422 524 0.397738
r216 422 423 0.53136
r217 418 523 0.0706443
r218 418 554 0.474429
r219 417 522 0.397738
r220 416 523 0.397738
r221 416 417 0.53136
r222 412 522 0.0706443
r223 412 553 0.474429
r224 410 522 0.397738
r225 410 411 0.53136
r226 406 411 0.327655
r227 406 552 0.474429
r228 368 581 5.33573
r229 327 568 5.33573
r230 322 593 13.5974
r231 321 322 13.5974
r232 318 405 2.30802
r233 318 321 13.5974
r234 314 593 3.26338
r235 314 593 29.3704
r236 313 402 4.57327
r237 312 405 4.57327
r238 312 313 33.0689
r239 311 592 13.5974
r240 310 311 13.5974
r241 307 402 2.30802
r242 307 310 13.5974
r243 303 592 3.26338
r244 303 592 29.3704
r245 302 399 4.57327
r246 301 402 4.57327
r247 301 302 33.0689
r248 300 591 13.5974
r249 299 300 13.5974
r250 296 399 2.30802
r251 296 299 13.5974
r252 292 591 3.26338
r253 292 591 29.3704
r254 291 396 4.57327
r255 290 399 4.57327
r256 290 291 33.0689
r257 289 590 13.5974
r258 288 289 13.5974
r259 285 396 2.30802
r260 285 288 13.5974
r261 281 590 3.26338
r262 281 590 29.3704
r263 280 393 4.57327
r264 279 396 4.57327
r265 279 280 33.0689
r266 278 589 13.5974
r267 277 278 13.5974
r268 274 393 2.30802
r269 274 277 13.5974
r270 270 589 3.26338
r271 270 589 29.3704
r272 269 390 4.57327
r273 268 393 4.57327
r274 268 269 33.0689
r275 267 588 13.5974
r276 266 267 13.5974
r277 263 390 2.30802
r278 263 266 13.5974
r279 259 588 3.26338
r280 259 588 29.3704
r281 258 387 4.57327
r282 257 390 4.57327
r283 257 258 33.0689
r284 256 587 13.5974
r285 255 256 13.5974
r286 252 387 2.30802
r287 252 255 13.5974
r288 248 587 3.26338
r289 248 587 29.3704
r290 247 384 4.57327
r291 246 387 4.57327
r292 246 247 33.0689
r293 245 586 13.5974
r294 244 245 13.5974
r295 241 384 2.30802
r296 241 244 13.5974
r297 237 586 3.26338
r298 237 586 29.3704
r299 235 236 15.954
r300 234 381 5.52744
r301 234 235 15.954
r302 233 384 4.57327
r303 233 236 15.9549
r304 231 619 1
r305 231 585 15.0708
r306 229 616 1
r307 229 231 8.70233
r308 227 613 1
r309 227 229 8.70233
r310 224 225 23.9314
r311 223 609 1
r312 223 227 8.70233
r313 223 225 23.9314
r314 219 381 1.43649
r315 219 224 23.9314
r316 215 585 3.26338
r317 215 585 13.9123
r318 213 214 19.7251
r319 212 377 4.57327
r320 212 213 19.7251
r321 211 381 5.52744
r322 211 214 19.7256
r323 210 584 24.4753
r324 209 210 24.4753
r325 206 377 2.30802
r326 206 209 24.4753
r327 202 584 3.26338
r328 202 584 13.0535
r329 200 201 19.7251
r330 199 374 4.57327
r331 199 200 19.7251
r332 198 377 4.57327
r333 198 201 19.7256
r334 197 583 24.4753
r335 196 197 24.4753
r336 193 374 2.30802
r337 193 196 24.4753
r338 189 583 3.26338
r339 189 583 13.0535
r340 187 188 19.7251
r341 186 371 4.57327
r342 186 187 19.7251
r343 185 374 4.57327
r344 185 188 19.7256
r345 184 582 24.4753
r346 183 184 24.4753
r347 180 371 2.30802
r348 180 183 24.4753
r349 176 582 3.26338
r350 176 582 13.0535
r351 174 175 21.4656
r352 173 365 5.52744
r353 173 174 21.4656
r354 172 371 4.57327
r355 172 175 21.466
r356 168 581 3.26338
r357 168 581 9.79012
r358 167 368 39.1605
r359 166 167 39.1605
r360 164 365 1.43649
r361 164 166 39.1605
r362 162 163 17.1144
r363 161 364 4.57327
r364 161 162 17.1144
r365 160 365 5.52744
r366 160 163 17.1149
r367 159 580 13.5974
r368 158 159 13.5974
r369 155 364 2.30802
r370 155 158 13.5974
r371 151 580 3.26338
r372 151 580 29.3704
r373 150 361 4.57327
r374 149 364 4.57327
r375 149 150 33.0689
r376 148 579 13.5974
r377 147 148 13.5974
r378 144 361 2.30802
r379 144 147 13.5974
r380 140 579 3.26338
r381 140 579 29.3704
r382 139 358 4.57327
r383 138 361 4.57327
r384 138 139 33.0689
r385 137 578 13.5974
r386 136 137 13.5974
r387 133 358 2.30802
r388 133 136 13.5974
r389 129 578 3.26338
r390 129 578 29.3704
r391 128 355 4.57327
r392 127 358 4.57327
r393 127 128 33.0689
r394 126 577 13.5974
r395 125 126 13.5974
r396 122 355 2.30802
r397 122 125 13.5974
r398 118 577 3.26338
r399 118 577 29.3704
r400 117 352 4.57327
r401 116 355 4.57327
r402 116 117 33.0689
r403 115 576 13.5974
r404 114 115 13.5974
r405 111 352 2.30802
r406 111 114 13.5974
r407 107 576 3.26338
r408 107 576 29.3704
r409 106 349 4.57327
r410 105 352 4.57327
r411 105 106 33.0689
r412 104 575 13.5974
r413 103 104 13.5974
r414 100 349 2.30802
r415 100 103 13.5974
r416 96 575 3.26338
r417 96 575 29.3704
r418 95 346 4.57327
r419 94 349 4.57327
r420 94 95 33.0689
r421 93 574 13.5974
r422 92 93 13.5974
r423 89 346 2.30802
r424 89 92 13.5974
r425 85 574 3.26338
r426 85 574 29.3704
r427 84 343 4.57327
r428 83 346 4.57327
r429 83 84 33.0689
r430 82 573 13.5974
r431 81 82 13.5974
r432 78 343 2.30802
r433 78 81 13.5974
r434 74 573 3.26338
r435 74 573 29.3704
r436 72 340 5.52744
r437 71 343 4.57327
r438 69 605 1
r439 69 572 15.0708
r440 67 602 1
r441 67 69 8.70233
r442 65 599 1
r443 65 67 8.70233
r444 62 63 23.9314
r445 61 595 1
r446 61 65 8.70233
r447 61 63 23.9314
r448 57 340 1.43649
r449 57 62 23.9314
r450 53 572 3.26338
r451 53 572 13.9123
r452 51 52 19.7251
r453 50 336 4.57327
r454 50 51 19.7251
r455 49 340 5.52744
r456 49 52 19.7256
r457 48 571 24.4753
r458 47 48 24.4753
r459 44 336 2.30802
r460 44 47 24.4753
r461 40 571 3.26338
r462 40 571 13.0535
r463 38 39 19.7251
r464 37 333 4.57327
r465 37 38 19.7251
r466 36 336 4.57327
r467 36 39 19.7256
r468 35 570 24.4753
r469 34 35 24.4753
r470 31 333 2.30802
r471 31 34 24.4753
r472 27 570 3.26338
r473 27 570 13.0535
r474 25 26 19.7251
r475 24 330 4.57327
r476 24 25 19.7251
r477 23 333 4.57327
r478 23 26 19.7256
r479 22 569 24.4753
r480 21 22 24.4753
r481 18 330 2.30802
r482 18 21 24.4753
r483 14 569 3.26338
r484 14 569 13.0535
r485 12 13 21.4656
r486 11 12 21.4656
r487 10 330 4.57327
r488 10 13 21.466
r489 6 568 3.26338
r490 6 568 9.79012
r491 5 327 39.1605
r492 4 5 39.1605
r493 2 11 7.29337
r494 2 4 39.1605
r495 1 71 25.933
r496 1 72 21.9299
.ends

.subckt PM_BUFD8%net1 6 21 32 43 54 65 76 87 150 166 173 174 176 183 186 193 194
+ 196 203 206 213 214 216 223 226 233 234 236 243 248 255 256 258 265 268 275
+ 276 278 285 288 295 296 298 305 308 315 316 318 325 328 335 336 338 345 348
+ 355 356 358 365 368 375 376 378 385 388 395 396 398 405 453 454 455 456 457
+ 458 459 460 461 462 463 464 465 466 467 468 469 470 471 472 473 474 475 476
+ 477 478 479 480 481 482 483 484 485 486 487 488 489 490 491 492 493 494
r302 503 506 0.0903673
r303 500 503 0.0903673
r304 496 500 0.0903673
r305 404 405 0.62445
r306 404 476 0.62445
r307 398 405 0.624484
r308 397 428 0.231882
r309 396 398 0.252919
r310 396 397 0.53136
r311 394 395 0.62445
r312 394 475 0.62445
r313 388 428 0.0151417
r314 388 395 0.624484
r315 387 427 0.231882
r316 386 428 0.231882
r317 386 387 0.53136
r318 384 385 0.62445
r319 384 474 0.62445
r320 378 427 0.0151417
r321 378 385 0.624484
r322 377 426 0.231882
r323 376 427 0.231882
r324 376 377 0.53136
r325 374 375 0.62445
r326 374 473 0.62445
r327 368 426 0.0151417
r328 368 375 0.624484
r329 367 425 0.231882
r330 366 426 0.231882
r331 366 367 0.53136
r332 364 365 0.62445
r333 364 472 0.62445
r334 358 425 0.0151417
r335 358 365 0.624484
r336 357 424 0.231882
r337 356 425 0.231882
r338 356 357 0.53136
r339 354 355 0.62445
r340 354 471 0.62445
r341 348 424 0.0151417
r342 348 355 0.624484
r343 347 423 0.231882
r344 346 424 0.231882
r345 346 347 0.53136
r346 344 345 0.62445
r347 344 470 0.62445
r348 338 423 0.0151417
r349 338 345 0.624484
r350 337 422 0.231882
r351 336 423 0.231882
r352 336 337 0.53136
r353 334 335 0.62445
r354 334 469 0.62445
r355 328 422 0.0151417
r356 328 335 0.624484
r357 327 421 0.231882
r358 326 422 0.231882
r359 326 327 0.53136
r360 324 325 0.62445
r361 324 468 0.62445
r362 318 421 0.0151417
r363 318 325 0.624484
r364 317 420 0.231882
r365 316 421 0.231882
r366 316 317 0.53136
r367 314 315 0.62445
r368 314 467 0.62445
r369 308 420 0.0151417
r370 308 315 0.624484
r371 307 419 0.231882
r372 306 420 0.231882
r373 306 307 0.53136
r374 304 305 0.62445
r375 304 466 0.62445
r376 298 419 0.0151417
r377 298 305 0.624484
r378 297 418 0.231882
r379 296 419 0.231882
r380 296 297 0.53136
r381 294 295 0.62445
r382 294 465 0.62445
r383 288 418 0.0151417
r384 288 295 0.624484
r385 287 417 0.231882
r386 286 418 0.231882
r387 286 287 0.53136
r388 284 285 0.62445
r389 284 464 0.62445
r390 278 417 0.0151417
r391 278 285 0.624484
r392 277 416 0.231882
r393 276 417 0.231882
r394 276 277 0.53136
r395 274 275 0.62445
r396 274 463 0.62445
r397 268 416 0.0151417
r398 268 275 0.624484
r399 267 415 0.231882
r400 266 416 0.231882
r401 266 267 0.53136
r402 264 265 0.62445
r403 264 462 0.62445
r404 258 415 0.0151417
r405 258 265 0.624484
r406 257 414 0.231882
r407 256 415 0.231882
r408 256 257 0.53136
r409 254 255 0.62445
r410 254 461 0.62445
r411 248 414 0.0151417
r412 248 255 0.624484
r413 246 247 1.06272
r414 245 413 0.231882
r415 245 246 1.06272
r416 244 414 0.231882
r417 244 247 1.06272
r418 242 243 0.62445
r419 242 460 0.62445
r420 236 413 0.0151417
r421 236 243 0.624484
r422 235 412 0.231882
r423 234 413 0.231882
r424 234 235 0.53136
r425 232 233 0.62445
r426 232 459 0.62445
r427 226 412 0.0151417
r428 226 233 0.624484
r429 225 411 0.231882
r430 224 412 0.231882
r431 224 225 0.53136
r432 222 223 0.62445
r433 222 458 0.62445
r434 216 411 0.0151417
r435 216 223 0.624484
r436 215 410 0.231882
r437 214 411 0.231882
r438 214 215 0.53136
r439 212 213 0.62445
r440 212 457 0.62445
r441 206 410 0.0151417
r442 206 213 0.624484
r443 205 409 0.231882
r444 204 410 0.231882
r445 204 205 0.53136
r446 202 203 0.62445
r447 202 456 0.62445
r448 196 409 0.0151417
r449 196 203 0.624484
r450 195 408 0.231882
r451 194 409 0.231882
r452 194 195 0.53136
r453 192 193 0.62445
r454 192 455 0.62445
r455 186 408 0.0151417
r456 186 193 0.624484
r457 185 407 0.231882
r458 184 408 0.231882
r459 184 185 0.53136
r460 182 183 0.62445
r461 182 454 0.62445
r462 176 407 0.0151417
r463 176 183 0.624484
r464 175 406 0.231882
r465 174 407 0.231882
r466 174 175 0.53136
r467 172 173 0.62445
r468 172 453 0.62445
r469 166 406 0.0151417
r470 166 173 0.624484
r471 164 406 0.231882
r472 164 165 1.19556
r473 162 163 0.367524
r474 161 506 1
r475 161 162 0.367524
r476 159 503 1
r477 159 161 0.17712
r478 157 500 1
r479 157 159 0.17712
r480 154 496 1
r481 154 157 0.17712
r482 152 165 0.311719
r483 152 163 0.367524
r484 149 150 0.795218
r485 148 149 0.795218
r486 148 494 15.0372
r487 145 148 7.15696
r488 145 492 9.94982
r489 143 145 7.95218
r490 143 490 9.94982
r491 141 143 7.95218
r492 141 488 9.94982
r493 139 141 7.95218
r494 139 486 9.94982
r495 137 139 7.95218
r496 137 484 9.94982
r497 135 137 7.95218
r498 135 482 9.94982
r499 133 135 7.95218
r500 133 480 9.94982
r501 132 133 7.15696
r502 132 478 15.0372
r503 130 132 0.795218
r504 129 130 0.795218
r505 128 493 6.52456
r506 111 477 6.52456
r507 103 104 5.318
r508 102 506 1
r509 102 503 1
r510 102 500 1
r511 102 496 1
r512 102 104 5.31829
r513 100 103 5.318
r514 99 100 9.30195
r515 98 150 4.5725
r516 98 99 18.8343
r517 97 150 15.0372
r518 97 128 19.5802
r519 92 149 9.94982
r520 92 494 29.3704
r521 88 493 3.26338
r522 88 493 29.3704
r523 87 145 13.6631
r524 87 491 9.78903
r525 81 145 9.94982
r526 81 492 29.3704
r527 77 491 3.26338
r528 77 491 29.3704
r529 76 143 13.6631
r530 76 489 9.78903
r531 70 143 9.94982
r532 70 490 29.3704
r533 66 489 3.26338
r534 66 489 29.3704
r535 65 141 13.6631
r536 65 487 9.78903
r537 59 141 9.94982
r538 59 488 29.3704
r539 55 487 3.26338
r540 55 487 29.3704
r541 54 139 13.6631
r542 54 485 9.78903
r543 48 139 9.94982
r544 48 486 29.3704
r545 44 485 3.26338
r546 44 485 29.3704
r547 43 137 13.6631
r548 43 483 9.78903
r549 37 137 9.94982
r550 37 484 29.3704
r551 33 483 3.26338
r552 33 483 29.3704
r553 32 135 13.6631
r554 32 481 9.78903
r555 26 135 9.94982
r556 26 482 29.3704
r557 22 481 3.26338
r558 22 481 29.3704
r559 21 133 13.6631
r560 21 479 9.78903
r561 15 133 9.94982
r562 15 480 29.3704
r563 11 479 3.26338
r564 11 479 29.3704
r565 7 130 9.94982
r566 7 478 29.3704
r567 6 129 15.0372
r568 6 111 19.5802
r569 1 477 3.26338
r570 1 477 29.3704
.ends

.subckt PM_BUFD8%net2 37 41 62 76 78 85 88 95 96 98 105 108 115 116 118 125 128
+ 135 136 138 145 148 155 156 158 165 168 175 176 178 185 188 195 196 198 205
+ 208 215 216 218 225 228 235 267 268 269 270 271 272 273 274 275 276 277 278
+ 279 280 281 282 283 284 285 286 287 288 289 290 291
r154 300 303 0.0984
r155 297 300 0.0984
r156 293 297 0.0984
r157 234 235 0.62445
r158 234 282 0.62445
r159 228 235 0.624484
r160 227 250 0.231882
r161 226 228 0.252919
r162 226 227 0.53136
r163 224 225 0.62445
r164 224 281 0.62445
r165 218 250 0.0151417
r166 218 225 0.624484
r167 217 249 0.231882
r168 216 250 0.231882
r169 216 217 0.53136
r170 214 215 0.62445
r171 214 280 0.62445
r172 208 249 0.0151417
r173 208 215 0.624484
r174 207 248 0.231882
r175 206 249 0.231882
r176 206 207 0.53136
r177 204 205 0.62445
r178 204 279 0.62445
r179 198 248 0.0151417
r180 198 205 0.624484
r181 197 247 0.231882
r182 196 248 0.231882
r183 196 197 0.53136
r184 194 195 0.62445
r185 194 278 0.62445
r186 188 247 0.0151417
r187 188 195 0.624484
r188 187 246 0.231882
r189 186 247 0.231882
r190 186 187 0.53136
r191 184 185 0.62445
r192 184 277 0.62445
r193 178 246 0.0151417
r194 178 185 0.624484
r195 177 245 0.231882
r196 176 246 0.231882
r197 176 177 0.53136
r198 174 175 0.62445
r199 174 276 0.62445
r200 168 245 0.0151417
r201 168 175 0.624484
r202 167 244 0.231882
r203 166 245 0.231882
r204 166 167 0.53136
r205 164 165 0.62445
r206 164 275 0.62445
r207 158 244 0.0151417
r208 158 165 0.624484
r209 157 243 0.231882
r210 156 244 0.231882
r211 156 157 0.53136
r212 154 155 0.62445
r213 154 274 0.62445
r214 148 243 0.0151417
r215 148 155 0.624484
r216 147 242 0.231882
r217 146 243 0.231882
r218 146 147 0.53136
r219 144 145 0.62445
r220 144 273 0.62445
r221 138 242 0.0151417
r222 138 145 0.624484
r223 137 241 0.231882
r224 136 242 0.231882
r225 136 137 0.53136
r226 134 135 0.62445
r227 134 272 0.62445
r228 128 241 0.0151417
r229 128 135 0.624484
r230 127 240 0.231882
r231 126 241 0.231882
r232 126 127 0.53136
r233 124 125 0.62445
r234 124 271 0.62445
r235 118 240 0.0151417
r236 118 125 0.624484
r237 117 239 0.231882
r238 116 240 0.231882
r239 116 117 0.53136
r240 114 115 0.62445
r241 114 270 0.62445
r242 108 239 0.0151417
r243 108 115 0.624484
r244 107 238 0.231882
r245 106 239 0.231882
r246 106 107 0.53136
r247 104 105 0.62445
r248 104 269 0.62445
r249 98 238 0.0151417
r250 98 105 0.624484
r251 97 237 0.231882
r252 96 238 0.231882
r253 96 97 0.53136
r254 94 95 0.62445
r255 94 268 0.62445
r256 88 237 0.0151417
r257 88 95 0.624484
r258 87 236 0.231882
r259 86 237 0.231882
r260 86 87 0.53136
r261 84 85 0.62445
r262 84 267 0.62445
r263 78 236 0.0151417
r264 78 85 0.624484
r265 76 236 0.231882
r266 76 77 0.92988
r267 74 303 1
r268 72 300 1
r269 72 74 0.2952
r270 70 297 1
r271 70 72 0.2952
r272 67 68 0.9594
r273 66 293 1
r274 66 70 0.2952
r275 66 68 0.9594
r276 64 77 0.260498
r277 64 67 0.9594
r278 62 63 1.15433
r279 62 291 13.6032
r280 59 62 3.07822
r281 59 290 10.1814
r282 58 59 3.84777
r283 58 289 10.1814
r284 56 58 7.69555
r285 56 288 10.1814
r286 53 56 0.769555
r287 53 287 10.1814
r288 52 53 6.926
r289 52 286 10.1814
r290 49 52 5.38689
r291 49 285 10.1814
r292 48 49 1.53911
r293 48 284 15.2867
r294 46 48 0.769555
r295 41 303 1
r296 41 291 7.17942
r297 39 300 1
r298 39 41 5.2214
r299 37 297 1
r300 37 39 5.2214
r301 35 293 1
r302 35 63 8.62641
r303 35 37 5.2214
r304 29 59 10.1814
r305 29 290 13.0535
r306 25 58 10.1814
r307 25 289 29.3704
r308 21 56 10.1814
r309 21 288 29.3704
r310 17 53 10.1814
r311 17 287 13.0535
r312 13 52 10.1814
r313 13 286 29.3704
r314 9 49 10.1814
r315 9 285 13.0535
r316 5 46 10.1814
r317 5 284 29.3704
r318 1 46 10.0042
r319 1 283 10.1814
r320 1 283 13.0535
.ends

.subckt PM_BUFD8%VDD 1 14 23 32 41 53 62 71 80 89 98 107 116 129 138 147 156 167
+ 176 185 194 203 212 221 230 305 306 307 308 309 310 311 312 313 314 315 316
+ 317 318 319 320 321 322 323 324 325 326 327 328
r168 230 304 2.30802
r169 230 328 26.1059
r170 224 328 3.26338
r171 224 328 29.3704
r172 223 301 4.57327
r173 222 304 4.57327
r174 222 223 33.0689
r175 221 301 2.30802
r176 221 327 26.1059
r177 215 327 3.26338
r178 215 327 29.3704
r179 214 298 4.57327
r180 213 301 4.57327
r181 213 214 33.0689
r182 212 298 2.30802
r183 212 326 26.1059
r184 206 326 3.26338
r185 206 326 29.3704
r186 205 295 4.57327
r187 204 298 4.57327
r188 204 205 33.0689
r189 203 295 2.30802
r190 203 325 26.1059
r191 197 325 3.26338
r192 197 325 29.3704
r193 196 292 4.57327
r194 195 295 4.57327
r195 195 196 33.0689
r196 194 292 2.30802
r197 194 324 26.1059
r198 188 324 3.26338
r199 188 324 29.3704
r200 187 289 4.57327
r201 186 292 4.57327
r202 186 187 33.0689
r203 185 289 2.30802
r204 185 323 26.1059
r205 179 323 3.26338
r206 179 323 29.3704
r207 178 286 4.57327
r208 177 289 4.57327
r209 177 178 33.0689
r210 176 286 2.30802
r211 176 322 26.1059
r212 170 322 3.26338
r213 170 322 29.3704
r214 169 283 4.57327
r215 168 286 4.57327
r216 168 169 33.0689
r217 167 283 2.30802
r218 167 321 26.1059
r219 161 321 3.26338
r220 161 321 29.3704
r221 159 160 28.4275
r222 158 280 4.57327
r223 158 159 28.4275
r224 157 283 4.57327
r225 157 160 28.4279
r226 156 280 2.30802
r227 156 320 26.1059
r228 150 320 3.26338
r229 150 320 29.3704
r230 149 277 4.57327
r231 148 280 4.57327
r232 148 149 33.0689
r233 147 277 2.30802
r234 147 319 26.1059
r235 141 319 3.26338
r236 141 319 29.3704
r237 140 274 4.57327
r238 139 277 4.57327
r239 139 140 33.0689
r240 138 274 2.30802
r241 138 318 26.1059
r242 132 318 3.26338
r243 132 318 29.3704
r244 131 271 4.57327
r245 130 274 4.57327
r246 130 131 33.0689
r247 129 271 2.30802
r248 129 317 26.1059
r249 123 317 3.26338
r250 123 317 29.3704
r251 121 122 34.4612
r252 120 121 34.4612
r253 119 120 34.4612
r254 118 268 4.57327
r255 118 119 34.4612
r256 117 271 4.57327
r257 117 122 34.4612
r258 116 268 2.30802
r259 116 316 26.1059
r260 110 316 3.26338
r261 110 316 29.3704
r262 109 265 4.57327
r263 108 268 4.57327
r264 108 109 33.0689
r265 107 265 2.30802
r266 107 315 26.1059
r267 101 315 3.26338
r268 101 315 29.3704
r269 100 262 4.57327
r270 99 265 4.57327
r271 99 100 33.0689
r272 98 262 2.30802
r273 98 314 26.1059
r274 92 314 3.26338
r275 92 314 29.3704
r276 91 259 4.57327
r277 90 262 4.57327
r278 90 91 33.0689
r279 89 259 2.30802
r280 89 313 26.1059
r281 83 313 3.26338
r282 83 313 29.3704
r283 82 256 4.57327
r284 81 259 4.57327
r285 81 82 33.0689
r286 80 256 2.30802
r287 80 312 26.1059
r288 74 312 3.26338
r289 74 312 29.3704
r290 73 253 4.57327
r291 72 256 4.57327
r292 72 73 33.0689
r293 71 253 2.30802
r294 71 311 26.1059
r295 65 311 3.26338
r296 65 311 29.3704
r297 64 250 4.57327
r298 63 253 4.57327
r299 63 64 33.0689
r300 62 250 2.30802
r301 62 310 26.1059
r302 56 310 3.26338
r303 56 310 29.3704
r304 55 247 4.57327
r305 54 250 4.57327
r306 54 55 33.0689
r307 53 247 2.30802
r308 53 309 26.1059
r309 47 309 3.26338
r310 47 309 29.3704
r311 45 46 17.1001
r312 43 244 4.57327
r313 43 45 17.1001
r314 42 247 4.57327
r315 41 244 2.30802
r316 41 308 26.1059
r317 35 308 3.26338
r318 35 308 29.3704
r319 34 241 4.57327
r320 33 244 4.57327
r321 33 34 33.0689
r322 32 241 2.30802
r323 32 307 26.1059
r324 26 307 3.26338
r325 26 307 29.3704
r326 25 238 4.57327
r327 24 241 4.57327
r328 24 25 33.0689
r329 23 238 2.30802
r330 23 306 26.1059
r331 17 306 3.26338
r332 17 306 29.3704
r333 16 235 4.57327
r334 15 238 4.57327
r335 15 16 33.0689
r336 14 235 2.30802
r337 14 305 26.1059
r338 8 305 3.26338
r339 8 305 29.3704
r340 1 42 33.9826
r341 1 46 17.1001
.ends

.subckt PM_BUFD8%OUT 1 7 22 33 44 55 66 77 88 140 142 143 144 145 146 147 148
+ 149 150 151 152 153 154 155 156 157 158 159
r120 155 157 7.63148
r121 153 155 7.63148
r122 151 153 7.63148
r123 149 151 7.63148
r124 147 149 7.63148
r125 145 147 7.63148
r126 143 145 6.86834
r127 140 141 0.763148
r128 140 159 0.763148
r129 120 143 0.763148
r130 119 120 0.763148
r131 118 158 6.52456
r132 101 142 6.52456
r133 98 141 15.3504
r134 98 118 19.5802
r135 93 140 10.2406
r136 93 159 29.3704
r137 89 158 3.26338
r138 89 158 29.3704
r139 88 157 13.9714
r140 88 156 9.78903
r141 82 157 10.2406
r142 82 157 29.3704
r143 78 156 3.26338
r144 78 156 29.3704
r145 77 155 13.9714
r146 77 154 9.78903
r147 71 155 10.2406
r148 71 155 29.3704
r149 67 154 3.26338
r150 67 154 29.3704
r151 66 153 13.9714
r152 66 152 9.78903
r153 60 153 10.2406
r154 60 153 29.3704
r155 56 152 3.26338
r156 56 152 29.3704
r157 55 151 13.9714
r158 55 150 9.78903
r159 49 151 10.2406
r160 49 151 29.3704
r161 45 150 3.26338
r162 45 150 29.3704
r163 44 149 13.9714
r164 44 148 9.78903
r165 38 149 10.2406
r166 38 149 29.3704
r167 34 148 3.26338
r168 34 148 29.3704
r169 33 147 13.9714
r170 33 146 9.78903
r171 27 147 10.2406
r172 27 147 29.3704
r173 23 146 3.26338
r174 23 146 29.3704
r175 22 145 13.9714
r176 22 144 9.78903
r177 16 145 10.2406
r178 16 145 29.3704
r179 12 144 3.26338
r180 12 144 29.3704
r181 8 120 10.2406
r182 8 143 29.3704
r183 7 119 15.3504
r184 7 101 19.5802
r185 2 142 3.26338
r186 2 142 29.3704
r187 1 159 5.38783
r188 1 157 1.48051
.ends

.subckt PM_BUFD8%IN 15 22 23 25 32 35 42 43 45 52 55 62 63 65 72 75 82 83 85 92
+ 97 104 105 107 114 117 124 125 127 134 137 144 145 147 154 157 164 165 167 174
+ 177 184 185 187 194 197 204 205 207 214 217 224 225 227 234 237 244 245 247
+ 254 302 303 304 305 306 307 308 309 310 311 312 313 314 315 316 317 318 319
+ 320 321 322 323 324 325 326
r182 334 336 0.17712
r183 328 331 0.17712
r184 326 334 0.092988
r185 326 331 0.084132
r186 253 254 0.62445
r187 253 325 0.62445
r188 247 254 0.624484
r189 246 277 0.231882
r190 245 247 0.252919
r191 245 246 0.53136
r192 243 244 0.62445
r193 243 324 0.62445
r194 237 277 0.0151417
r195 237 244 0.624484
r196 236 276 0.231882
r197 235 277 0.231882
r198 235 236 0.53136
r199 233 234 0.62445
r200 233 323 0.62445
r201 227 276 0.0151417
r202 227 234 0.624484
r203 226 275 0.231882
r204 225 276 0.231882
r205 225 226 0.53136
r206 223 224 0.62445
r207 223 322 0.62445
r208 217 275 0.0151417
r209 217 224 0.624484
r210 216 274 0.231882
r211 215 275 0.231882
r212 215 216 0.53136
r213 213 214 0.62445
r214 213 321 0.62445
r215 207 274 0.0151417
r216 207 214 0.624484
r217 206 273 0.231882
r218 205 274 0.231882
r219 205 206 0.53136
r220 203 204 0.62445
r221 203 320 0.62445
r222 197 273 0.0151417
r223 197 204 0.624484
r224 196 272 0.231882
r225 195 273 0.231882
r226 195 196 0.53136
r227 193 194 0.62445
r228 193 319 0.62445
r229 187 272 0.0151417
r230 187 194 0.624484
r231 186 271 0.231882
r232 185 272 0.231882
r233 185 186 0.53136
r234 183 184 0.62445
r235 183 318 0.62445
r236 177 271 0.0151417
r237 177 184 0.624484
r238 176 270 0.231882
r239 175 271 0.231882
r240 175 176 0.53136
r241 173 174 0.62445
r242 173 317 0.62445
r243 167 270 0.0151417
r244 167 174 0.624484
r245 166 269 0.231882
r246 165 270 0.231882
r247 165 166 0.53136
r248 163 164 0.62445
r249 163 316 0.62445
r250 157 269 0.0151417
r251 157 164 0.624484
r252 156 268 0.231882
r253 155 269 0.231882
r254 155 156 0.53136
r255 153 154 0.62445
r256 153 315 0.62445
r257 147 268 0.0151417
r258 147 154 0.624484
r259 146 267 0.231882
r260 145 268 0.231882
r261 145 146 0.53136
r262 143 144 0.62445
r263 143 314 0.62445
r264 137 267 0.0151417
r265 137 144 0.624484
r266 136 266 0.231882
r267 135 267 0.231882
r268 135 136 0.53136
r269 133 134 0.62445
r270 133 313 0.62445
r271 127 266 0.0151417
r272 127 134 0.624484
r273 126 265 0.231882
r274 125 266 0.231882
r275 125 126 0.53136
r276 123 124 0.62445
r277 123 312 0.62445
r278 117 265 0.0151417
r279 117 124 0.624484
r280 116 264 0.231882
r281 115 265 0.231882
r282 115 116 0.53136
r283 113 114 0.62445
r284 113 311 0.62445
r285 107 264 0.0151417
r286 107 114 0.624484
r287 106 263 0.231882
r288 105 264 0.231882
r289 105 106 0.53136
r290 103 104 0.62445
r291 103 310 0.62445
r292 97 263 0.0151417
r293 97 104 0.624484
r294 95 96 1.06272
r295 94 262 0.231882
r296 94 95 1.06272
r297 93 263 0.231882
r298 93 96 1.06272
r299 91 92 0.62445
r300 91 309 0.62445
r301 85 262 0.0151417
r302 85 92 0.624484
r303 84 261 0.231882
r304 83 262 0.231882
r305 83 84 0.53136
r306 81 82 0.62445
r307 81 308 0.62445
r308 75 261 0.0151417
r309 75 82 0.624484
r310 74 260 0.231882
r311 73 261 0.231882
r312 73 74 0.53136
r313 71 72 0.62445