* File: DFFSRD8.cdl.pex
* Created: Sat Aug 17 14:07:14 2024
* Program "Calibre xRC"
* Version "v2023.1_18.8"
* Nominal Temperature: 25C
* Circuit Temperature: 25C
* 
.subckt PM_DFFSRD8%CKb 1 4 7 10 12 15 18 22 37 39 43 44 46 48 51 52 53 55 57 58
+ 59 63 66 67 68 71 72 75 78 81 82 83 85 86 87 90 92 94 96 97 99 100 102 107 108
+ 109 110 111 113 119 120 123 124 126 129 135 138 141 148 150 151 155 157 160
+ 162 164 166 167 168 170 171 172 174 187 198
c466 198 0 0.310321f
c467 187 0 3.86234e-20
c468 175 0 0.00640079f
c469 174 0 0.0379425f
c470 171 0 0.00373657f
c471 170 0 0.0448366f
c472 168 0 0.0127945f
c473 167 0 0.176941f
c474 166 0 0.0166882f
c475 164 0 0.0168139f
c476 162 0 0.0907383f
c477 160 0 0.0678197f
c478 157 0 0.0630321f
c479 155 0 0.091131f
c480 151 0 0.0250009f
c481 150 0 0.0561693f
c482 148 0 0.046689f
c483 141 0 0.0842451f
c484 138 0 0.00269882f
c485 135 0 0.26373f
c486 129 0 0.0147566f
c487 126 0 0.0458703f
c488 124 0 0.0270471f
c489 123 0 0.0500791f
c490 120 0 0.0274642f
c491 119 0 0.0610624f
c492 113 0 0.0555052f
c493 111 0 0.00793355f
c494 110 0 0.115402f
c495 109 0 0.0219785f
c496 108 0 0.0341825f
c497 107 0 0.0233771f
c498 105 0 0.0304294f
c499 102 0 0.00803671f
c500 100 0 0.154062f
c501 99 0 0.049748f
c502 97 0 0.297544f
c503 96 0 0.0697135f
c504 94 0 0.400223f
c505 92 0 0.00919368f
c506 90 0 0.04438f
c507 87 0 0.0314902f
c508 86 0 0.16346f
c509 85 0 0.170348f
c510 83 0 0.0243478f
c511 82 0 0.336123f
c512 81 0 0.0488887f
c513 78 0 0.111246f
c514 75 0 0.228798f
c515 72 0 0.0243746f
c516 71 0 0.125704f
c517 68 0 0.0265632f
c518 67 0 0.0968229f
c519 66 0 0.0287958f
c520 63 0 0.754395f
c521 59 0 0.0432073f
c522 58 0 0.182191f
c523 57 0 0.0221461f
c524 55 0 0.0220804f
c525 53 0 0.0224334f
c526 52 0 0.214126f
c527 51 0 0.0371861f
c528 48 0 0.161952f
c529 46 0 0.110812f
c530 44 0 0.186362f
c531 43 0 0.0243226f
c532 39 0 0.0257536f
c533 37 0 0.19446f
c534 12 0 0.0915535f
c535 1 0 0.0794452f
r536 174 207 0.21
r537 171 174 0.039111
r538 171 172 0.35
r539 169 172 0.039111
r540 169 170 0.21
r541 167 170 0.039111
r542 167 168 1.02667
r543 166 168 0.039111
r544 166 203 0.07
r545 164 198 1.69167
r546 162 164 0.039111
r547 162 195 0.49
r548 160 191 0.443333
r549 157 160 0.039111
r550 157 187 1.10833
r551 156 175 0.00770322
r552 155 156 0.396667
r553 150 176 0.0417772
r554 149 175 0.0296412
r555 149 150 0.256667
r556 148 175 0.0296412
r557 147 151 0.0534439
r558 147 148 0.21
r559 141 207 0.0684127
r560 138 203 0.0684127
r561 135 138 0.166667
r562 129 198 0.0684127
r563 126 129 0.138333
r564 123 195 0.0684127
r565 123 124 0.488662
r566 119 191 0.0684127
r567 119 120 0.488662
r568 116 187 0.0684127
r569 113 116 0.166667
r570 110 111 0.332222
r571 109 110 2.16667
r572 102 155 0.0684127
r573 102 103 0.488662
r574 99 102 0.166667
r575 99 100 0.321996
r576 97 142 0.821614
r577 96 142 0.0672342
r578 95 141 0.681818
r579 95 96 1.16667
r580 93 94 6.055
r581 92 93 6.055
r582 91 135 0.298409
r583 91 94 6.05667
r584 90 92 0.279364
r585 89 90 1.33333
r586 86 89 0.286844
r587 84 87 0.286844
r588 84 85 4.33333
r589 82 85 0.279364
r590 82 83 6.41667
r591 81 83 0.279364
r592 80 81 1.5
r593 79 133 0.0293644
r594 78 80 0.279364
r595 78 79 1.75
r596 76 126 0.225711
r597 75 133 0.75
r598 73 124 1
r599 71 73 0.279364
r600 71 72 11
r601 69 72 0.279364
r602 69 120 1
r603 67 113 0.298409
r604 67 68 1.66667
r605 66 68 0.279364
r606 65 112 0.127482
r607 65 66 0.916667
r608 63 112 0.889019
r609 63 111 14.8333
r610 59 108 0.532372
r611 58 109 0.282372
r612 57 108 0.583333
r613 55 57 0.279364
r614 54 55 0.5
r615 52 54 0.279364
r616 52 53 3.33333
r617 50 53 0.279364
r618 50 51 1.16667
r619 45 99 0.298409
r620 44 51 0.279364
r621 44 45 4.91667
r622 43 107 0.666667
r623 40 43 0.279364
r624 40 100 3
r625 39 105 0.833333
r626 37 39 0.279364
r627 37 103 3.16667
r628 22 97 1
r629 18 58 1.25
r630 18 59 1
r631 15 48 0.125
r632 15 107 0.407372
r633 15 48 1.125
r634 12 151 0.0311111
r635 10 75 0.875
r636 10 76 1.1875
r637 7 86 0.9375
r638 7 87 0.9375
r639 4 46 0.125
r640 4 105 0.407372
r641 4 46 0.5
r642 1 176 0.0272222
.ends

.subckt PM_DFFSRD8%CKbb 1 4 8 10 13 16 26 27 28 29 31 33 35 37 43 44 49 50 51 52
+ 55 57 58 59 61 63 64 65 66 69 70 71 73 75 76 81 82 86 91 93 97 101 102 103 105
+ 108 115 117 121 127 130 134 137 138 139 141 143 144 146 150 152 153 168
c440 168 0 0.0242533f
c441 153 0 0.0154406f
c442 152 0 0.00952282f
c443 150 0 0.0270911f
c444 146 0 0.171583f
c445 144 0 0.0525268f
c446 143 0 0.146558f
c447 141 0 0.178368f
c448 139 0 0.0088097f
c449 138 0 0.115297f
c450 137 0 0.0247458f
c451 134 0 0.0586601f
c452 130 0 0.028931f
c453 127 0 0.0777203f
c454 121 0 0.0893135f
c455 117 0 0.0171f
c456 115 0 0.0337072f
c457 109 0 0.0233689f
c458 108 0 0.0500421f
c459 105 0 0.161262f
c460 103 0 0.0574506f
c461 102 0 0.0325205f
c462 101 0 0.199401f
c463 97 0 0.0517868f
c464 93 0 0.0505397f
c465 91 0 0.00418679f
c466 86 0 0.0722207f
c467 82 0 0.0560535f
c468 81 0 0.0248642f
c469 76 0 0.161964f
c470 75 0 0.0224009f
c471 73 0 0.0897187f
c472 71 0 0.0457436f
c473 70 0 0.118798f
c474 69 0 0.0921315f
c475 66 0 0.0664368f
c476 65 0 0.00545403f
c477 64 0 0.163107f
c478 63 0 0.0224072f
c479 61 0 0.574432f
c480 59 0 0.0247821f
c481 58 0 0.212475f
c482 57 0 0.0687814f
c483 55 0 0.0689059f
c484 52 0 0.232021f
c485 51 0 8.66596e-19
c486 50 0 0.114302f
c487 49 0 0.0250788f
c488 44 0 0.0238324f
c489 43 0 0.206452f
c490 37 0 0.12515f
c491 35 0 0.578313f
c492 33 0 0.407426f
c493 31 0 0.0657768f
c494 29 0 0.0220556f
c495 28 0 0.10186f
c496 27 0 0.0500573f
c497 26 0 0.051596f
c498 10 0 0.10328f
c499 1 0 0.107507f
r500 168 170 0.07
r501 147 168 0.00411102
r502 146 175 0.0417772
r503 146 147 1.02667
r504 144 170 0.00411102
r505 144 145 0.35
r506 143 165 0.7
r507 140 141 0.851667
r508 139 140 0.851667
r509 138 143 0.039111
r510 138 141 0.851667
r511 137 139 0.039111
r512 137 161 0.0933333
r513 135 152 0.00770322
r514 134 153 0.0417772
r515 134 135 0.245
r516 128 152 0.0296412
r517 128 150 0.128333
r518 127 152 0.0296412
r519 126 130 0.0534439
r520 126 127 0.338333
r521 117 119 0.5
r522 113 115 1
r523 111 112 0.785714
r524 108 175 0.0233333
r525 108 110 0.488662
r526 108 109 0.488662
r527 105 145 0.056
r528 105 106 0.490196
r529 102 103 1.08333
r530 101 102 0.375
r531 97 99 0.5
r532 93 165 0.0684127
r533 93 95 0.166667
r534 91 161 0.0684127
r535 86 88 0.916667
r536 82 84 0.666667
r537 79 153 0.0233333
r538 76 121 0.282372
r539 75 121 2.16667
r540 72 75 0.279364
r541 72 73 2.66667
r542 70 73 0.279364
r543 70 71 7.66667
r544 69 71 0.279364
r545 68 69 3
r546 67 117 0.0293644
r547 66 68 0.279364
r548 66 67 3.33333
r549 64 119 0.0293644
r550 64 65 5.5
r551 63 65 0.279364
r552 62 63 1
r553 60 61 6.38833
r554 59 60 6.38833
r555 58 62 0.279364
r556 58 61 6.39
r557 57 59 0.279364
r558 56 115 0.0293644
r559 56 57 1.5
r560 55 113 0.0293644
r561 54 55 1.5
r562 52 112 0.134114
r563 50 54 0.279364
r564 50 51 8
r565 49 111 0.0672342
r566 49 110 0.5
r567 46 51 0.279364
r568 46 109 0.5
r569 44 103 0.282372
r570 43 106 0.185882
r571 40 99 0.0293644
r572 40 101 4.75
r573 38 95 0.298409
r574 37 97 0.0293644
r575 37 38 2.66667
r576 36 86 0.0293644
r577 35 91 0.535714
r578 35 36 11.1667
r579 34 84 0.0293644
r580 33 88 0.0293644
r581 33 34 8.08333
r582 31 82 0.0293644
r583 31 81 1.08333
r584 28 81 0.282372
r585 27 79 0.488662
r586 26 29 0.266186
r587 26 27 0.916667
r588 16 43 1.25
r589 16 44 1.25
r590 13 112 0.164419
r591 13 52 1.125
r592 10 130 0.0311111
r593 8 76 0.625
r594 4 28 0.625
r595 4 29 0.625
r596 1 150 0.0692878
.ends

.subckt PM_DFFSRD8%D 3 7 11 13 15 17 19 21 25 26 29 31 32 36
c83 36 0 0.212288f
c84 32 0 0.190589f
c85 29 0 0.00843617f
c86 26 0 0.046617f
c87 25 0 0.0222833f
c88 21 0 0.0552634f
c89 19 0 0.0205888f
c90 17 0 0.0611319f
c91 15 0 0.209649f
c92 13 0 0.0981615f
c93 11 0 0.123828f
r94 36 45 0.91
r95 33 40 0.0417772
r96 32 36 0.039111
r97 31 32 0.0583333
r98 31 33 0.583333
r99 29 45 0.0684127
r100 26 29 0.166667
r101 21 40 0.0233333
r102 21 23 0.166667
r103 17 26 0.298409
r104 17 25 1.16667
r105 15 25 0.282372
r106 13 23 0.298409
r107 13 19 1.91667
r108 11 19 0.282372
r109 7 15 1.25
r110 3 11 0.625
.ends

.subckt PM_DFFSRD8%n20 1 8 10 15 22 24 35 38 39 40 41 43 45 47 48 50 51 52 54 61
+ 63 64 69 74 76 77 82 83 87 88 93 99 100 105 113 115
c248 115 0 0.194146f
c249 113 0 0.0379462f
c250 105 0 0.0315178f
c251 100 0 0.0817766f
c252 99 0 0.0999491f
c253 93 0 0.0514512f
c254 92 0 0.0525828f
c255 88 0 0.0367621f
c256 87 0 0.0999195f
c257 83 0 0.0699554f
c258 82 0 0.0592541f
c259 77 0 0.0259695f
c260 76 0 0.0227777f
c261 74 0 8.33385e-20
c262 69 0 0.090624f
c263 64 0 0.0136537f
c264 63 0 0.0243372f
c265 61 0 0.0580368f
c266 54 0 0.157537f
c267 52 0 0.0865186f
c268 51 0 0.0796405f
c269 50 0 0.0480188f
c270 48 0 0.0509896f
c271 47 0 0.145003f
c272 45 0 0.0613577f
c273 43 0 0.0437176f
c274 41 0 0.236976f
c275 40 0 0.0268853f
c276 39 0 0.677049f
c277 38 0 0.101133f
c278 35 0 0.654394f
c279 10 0 0.0843002f
r280 113 115 1.05
r281 105 110 0.21
r282 99 100 0.35
r283 92 113 0.0532251
r284 88 100 0.0550476
r285 82 93 0.0945384
r286 82 83 0.488662
r287 77 79 0.833333
r288 74 110 0.0684127
r289 69 105 0.0684127
r290 69 71 0.25
r291 64 66 0.666667
r292 59 87 0.0945384
r293 59 61 0.488662
r294 57 77 0.0293644
r295 57 83 1.25
r296 54 79 0.0293644
r297 54 76 3.41667
r298 52 75 0.884785
r299 51 76 0.282372
r300 50 75 0.0658456
r301 49 50 1.16667
r302 48 74 0.488662
r303 47 49 0.279364
r304 47 48 3.33333
r305 46 66 0.0293644
r306 45 74 0.488662
r307 45 46 1.66667
r308 43 64 0.0293644
r309 43 63 0.75
r310 41 63 0.282372
r311 39 71 0.298409
r312 39 40 13.0833
r313 38 40 0.279364
r314 37 62 0.127482
r315 37 38 1.91667
r316 35 62 0.889019
r317 35 61 14.8333
r318 24 92 0.0661111
r319 24 93 0.0194444
r320 22 41 1.25
r321 15 87 0.0661111
r322 15 88 0.0194444
r323 10 115 0.0723016
r324 8 51 0.625
r325 8 52 0.375
r326 1 99 0.0723016
.ends

.subckt PM_DFFSRD8%RNb 1 4 8 10 13 16 24 27 28 29 30 33 35 36 37 39 42 44 46 48
+ 50 51 54 57 58 59 61 62 63 65 66 67 69 70 71 73 75 76 79 85 89 90 93 96 100
+ 103 105 106 111 116 117 119 121 126 128 134 139 143
c408 143 0 0.00820371f
c409 139 0 0.0245927f
c410 134 0 4.46953e-20
c411 128 0 0.0139949f
c412 126 0 0.0972866f
c413 121 0 0.119011f
c414 119 0 0.14322f
c415 117 0 0.0126312f
c416 116 0 0.104851f
c417 111 0 0.103209f
c418 106 0 0.0449011f
c419 105 0 0.0248792f
c420 103 0 0.265041f
c421 100 0 0.0407486f
c422 96 0 0.0567206f
c423 93 0 0.0680613f
c424 90 0 0.0193294f
c425 89 0 0.0579859f
c426 85 0 0.0338831f
c427 79 0 0.0537138f
c428 76 0 0.146054f
c429 75 0 0.0211307f
c430 73 0 0.257342f
c431 71 0 0.0275928f
c432 70 0 0.243684f
c433 69 0 0.0351692f
c434 67 0 0.0281649f
c435 66 0 0.126721f
c436 65 0 0.134519f
c437 63 0 0.0127876f
c438 62 0 0.187989f
c439 61 0 0.112444f
c440 59 0 0.00693136f
c441 58 0 0.141781f
c442 57 0 0.0353344f
c443 54 0 0.0246308f
c444 51 0 0.218969f
c445 50 0 0.622618f
c446 48 0 0.0247821f
c447 46 0 0.0546516f
c448 44 0 0.0418996f
c449 42 0 0.161009f
c450 39 0 0.71041f
c451 37 0 0.0396952f
c452 36 0 0.0693589f
c453 35 0 8.73864e-19
c454 33 0 0.0596154f
c455 30 0 0.21163f
c456 29 0 0.00626226f
c457 28 0 0.109287f
c458 27 0 0.127981f
c459 24 0 0.418046f
c460 13 0 0.335988f
r461 139 141 0.07
r462 122 139 0.00411102
r463 121 143 0.0417772
r464 121 122 1.65667
r465 120 134 0.0417772
r466 119 141 0.00411102
r467 119 120 0.863333
r468 118 128 0.0161215
r469 117 132 0.0417772
r470 117 118 0.105
r471 116 126 0.0417772
r472 115 128 0.0225096
r473 115 116 0.513333
r474 111 128 0.0161215
r475 103 104 0.407372
r476 100 143 0.0233333
r477 100 102 0.488662
r478 96 134 0.0233333
r479 96 98 0.488662
r480 91 93 1
r481 85 87 0.666667
r482 79 132 0.0233333
r483 79 81 0.166667
r484 76 106 0.532372
r485 75 106 0.833333
r486 73 75 0.279364
r487 72 73 5.25
r488 70 72 0.279364
r489 70 71 3.66667
r490 68 71 0.279364
r491 68 69 0.75
r492 66 69 0.279364
r493 66 67 1.83333
r494 64 67 0.279364
r495 64 65 3.5
r496 62 65 0.279364
r497 62 63 5.66667
r498 61 63 0.279364
r499 60 61 3
r500 58 60 0.279364
r501 58 59 4
r502 57 59 0.279364
r503 56 57 0.666667
r504 54 56 0.279364
r505 54 105 1.66667
r506 51 105 0.282372
r507 50 103 6.11333
r508 49 50 6.11
r509 48 49 6.11
r510 46 48 0.279364
r511 46 102 1.5
r512 44 93 0.0293644
r513 44 98 1.25
r514 41 91 0.0293644
r515 41 42 4.25
r516 39 42 0.279364
r517 39 90 12.75
r518 37 89 0.532372
r519 36 90 0.282372
r520 35 89 1.25
r521 33 35 0.279364
r522 32 33 2.5
r523 31 85 0.0293644
r524 30 32 0.279364
r525 30 31 5.5
r526 28 87 0.0293644
r527 28 29 5.25
r528 27 29 0.279364
r529 26 84 0.0987454
r530 26 27 2.75
r531 25 81 0.298409
r532 24 25 9.08333
r533 16 51 1.25
r534 16 104 1.5
r535 13 84 1.69173
r536 13 24 2.16225
r537 10 111 0.0777778
r538 8 76 0.375
r539 4 36 0.625
r540 4 37 0.375
r541 1 126 0.0272222
.ends

.subckt PM_DFFSRD8%RN 3 6 9 11 13 15 17 18 20 24 27 29
c66 29 0 0.152101f
c67 27 0 0.00809647f
c68 24 0 0.0383884f
c69 20 0 0.0541185f
c70 18 0 0.0222103f
c71 17 0 0.0224105f
c72 15 0 0.0789152f
c73 13 0 0.119493f
c74 11 0 0.120478f
c75 9 0 0.21188f
r76 29 35 0.128333
r77 29 40 0.641667
r78 27 40 0.0684127
r79 24 27 0.166667
r80 20 35 0.0684127
r81 20 22 0.166667
r82 15 22 0.298409
r83 15 18 1.5
r84 13 24 0.298409
r85 13 17 2.5
r86 11 18 0.282372
r87 9 17 0.282372
r88 6 9 1.25
r89 3 11 0.625
.ends

.subckt PM_DFFSRD8%SN 3 6 10 14 23 25 27 29 32 33 36 37 38 41 42 44 45 46 48 49
+ 50 52 54 55 60 61 63 65 68 71 73 74 79 83 84 86 88 89 92 93 95 98 100 103 106
+ 107 109 112 119 121 122 125 126 127 133 134 135 137 139 154 162 167 170 174
+ 178
c433 178 0 0.0482842f
c434 174 0 0.0368491f
c435 170 0 0.0209663f
c436 167 0 2.22927e-21
c437 162 0 0.303953f
c438 154 0 0.0767809f
c439 139 0 0.0240756f
c440 137 0 0.119827f
c441 135 0 0.00269882f
c442 134 0 0.0654749f
c443 133 0 0.020844f
c444 127 0 0.0045404f
c445 126 0 0.262533f
c446 125 0 0.0299241f
c447 122 0 0.148261f
c448 121 0 0.0164321f
c449 119 0 0.148046f
c450 112 0 0.15362f
c451 109 0 0.0167827f
c452 107 0 0.030379f
c453 106 0 0.0492602f
c454 100 0 0.0485267f
c455 95 0 0.0550625f
c456 93 0 0.159199f
c457 92 0 0.057195f
c458 89 0 0.118398f
c459 88 0 0.0564411f
c460 86 0 0.0018119f
c461 84 0 0.0651174f
c462 83 0 8.36262e-19
c463 79 0 0.0493461f
c464 74 0 0.0596953f
c465 73 0 0.0228651f
c466 71 0 0.00810239f
c467 68 0 0.00250879f
c468 65 0 0.112717f
c469 63 0 0.188403f
c470 61 0 0.236933f
c471 60 0 8.89644e-19
c472 55 0 0.313544f
c473 54 0 0.0267355f
c474 52 0 0.0587685f
c475 50 0 0.0237404f
c476 49 0 0.125802f
c477 48 0 0.116484f
c478 46 0 0.0280993f
c479 45 0 0.280754f
c480 44 0 0.0382001f
c481 42 0 0.0272155f
c482 41 0 0.0738664f
c483 38 0 0.0714253f
c484 37 0 0.148145f
c485 36 0 0.0289345f
c486 33 0 0.193416f
c487 32 0 0.109882f
c488 29 0 0.100251f
c489 27 0 0.0378918f
c490 25 0 0.477312f
c491 23 0 0.0940073f
c492 22 0 0.070025f
r493 176 178 0.14
r494 151 154 0.49
r495 139 178 0.00411102
r496 139 183 0.151667
r497 136 137 1.00333
r498 135 136 1.00333
r499 134 187 0.0417772
r500 134 137 1.00333
r501 133 135 0.039111
r502 133 175 0.07
r503 130 176 0.00411102
r504 130 174 0.268333
r505 128 170 0.0933333
r506 126 128 0.039111
r507 126 127 1.03833
r508 124 127 0.039111
r509 124 125 0.128333
r510 122 125 0.039111
r511 122 167 0.501667
r512 121 162 1.645
r513 119 121 0.039111
r514 119 159 0.665
r515 112 142 0.443333
r516 112 147 0.326667
r517 111 187 0.0233333
r518 106 183 0.0684127
r519 106 107 0.488662
r520 103 175 0.0684127
r521 103 174 0.0684127
r522 100 103 0.166667
r523 98 170 0.0684127
r524 95 98 0.166667
r525 92 167 0.0684127
r526 92 93 0.488662
r527 88 162 0.0684127
r528 88 89 0.488662
r529 86 159 0.0684127
r530 84 86 0.357995
r531 83 151 0.0684127
r532 79 154 0.0684127
r533 79 81 0.488662
r534 74 76 0.333333
r535 71 142 0.0684127
r536 68 147 0.0684127
r537 65 68 0.333333
r538 63 111 0.760609
r539 61 109 0.282372
r540 60 109 1.16667
r541 57 60 0.279364
r542 57 107 0.5
r543 56 95 0.298409
r544 55 100 0.298409
r545 55 56 7.16667
r546 54 93 2.83333
r547 52 54 0.279364
r548 51 52 1.16667
r549 49 51 0.279364
r550 49 50 2.33333
r551 48 50 0.279364
r552 47 48 3.25
r553 45 47 0.279364
r554 45 46 4.33333
r555 43 46 0.279364
r556 43 44 1.41667
r557 41 44 0.279364
r558 41 42 0.916667
r559 39 42 0.279364
r560 39 89 3.33333
r561 38 83 0.4
r562 37 84 0.280087
r563 37 38 5.83333
r564 36 81 1
r565 31 32 5.61
r566 30 76 0.0293644
r567 30 31 5.61
r568 29 36 0.279364
r569 29 32 5.61333
r570 27 74 0.0293644
r571 27 73 0.75
r572 26 65 0.298409
r573 25 33 1.16995
r574 25 26 9.91667
r575 22 73 0.282372
r576 14 61 1.25
r577 10 33 1
r578 6 63 0.375
r579 3 23 0.166203
r580 3 71 0.594406
r581 3 22 0.5
r582 3 23 0.5
.ends

.subckt PM_DFFSRD8%mout 1 2 3 10 12 13 14 21 31 32 34 36 45 46 57 59 60 61 66 67
+ 69 72 73 74 76 77 79 82 85 86 92 94 95 96 97 98 103 108 120 121 124
c269 124 0 0.0421877f
c270 121 0 0.0276857f
c271 120 0 0.0444965f
c272 108 0 0.00811334f
c273 103 0 0.00809665f
c274 98 0 0.00122238f
c275 97 0 0.0382069f
c276 96 0 0.0337924f
c277 95 0 0.0267161f
c278 94 0 0.137731f
c279 92 0 0.0849968f
c280 86 0 0.0543277f
c281 85 0 0.0298746f
c282 82 0 0.0605146f
c283 79 0 0.0441202f
c284 77 0 0.0841489f
c285 76 0 0.0580757f
c286 74 0 0.0197423f
c287 73 0 0.110689f
c288 72 0 0.0831433f
c289 69 0 0.0456741f
c290 67 0 0.0265921f
c291 66 0 0.0443653f
c292 61 0 0.0390506f
c293 60 0 0.0457462f
c294 59 0 0.00810973f
c295 57 0 0.0336768f
c296 46 0 0.104737f
c297 45 0 0.048334f
c298 36 0 0.193549f
c299 34 0 0.381441f
c300 32 0 0.0791889f
c301 31 0 0.250957f
c302 3 0 0.0790488f
c303 2 0 0.08834f
r304 121 124 0.245
r305 116 117 0.0450794
r306 95 96 0.233333
r307 85 121 0.0684127
r308 85 86 0.0505556
r309 84 116 0.0417772
r310 84 120 0.21
r311 82 117 0.35
r312 80 108 0.0417772
r313 79 82 0.039111
r314 79 80 0.186667
r315 78 98 0.0296412
r316 77 103 0.0417772
r317 77 78 0.933333
r318 76 99 0.0417772
r319 75 98 0.00770322
r320 75 76 0.396667
r321 73 98 0.0296412
r322 73 74 1.06167
r323 71 74 0.039111
r324 71 72 0.443333
r325 69 72 0.039111
r326 69 97 0.151667
r327 67 96 0.0532251
r328 66 97 0.0684127
r329 61 94 0.0684127
r330 60 95 0.0684127
r331 59 94 0.7
r332 57 92 0.0417772
r333 56 59 0.039111
r334 56 57 0.198333
r335 45 116 0.0233333
r336 45 46 0.488662
r337 43 108 0.0233333
r338 41 103 0.0233333
r339 38 46 3
r340 36 43 0.602895
r341 34 38 0.279364
r342 34 35 10.25
r343 32 41 0.602895
r344 31 35 0.921376
r345 21 31 1.25
r346 21 32 1.25
r347 14 66 0.0661111
r348 14 67 0.0194444
r349 13 86 0.0155556
r350 13 120 0.0878572
r351 12 60 0.0661111
r352 12 61 0.0194444
r353 10 36 0.625
r354 3 99 0.0272222
r355 2 124 0.0723016
r356 1 92 0.0272222
.ends

.subckt PM_DFFSRD8%n35 1 2 7 8 27 29 34 37 39 41 42 43 45 47 48 51 56 57 62 68
+ 71 74 75 77 79 80 81 83 86 88 89 92 93 100 109 110 112
c228 112 0 0.0557743f
c229 110 0 0.0342934f
c230 109 0 0.0748823f
c231 100 0 0.0420161f
c232 93 0 0.0600998f
c233 92 0 0.0505969f
c234 89 0 0.0295109f
c235 88 0 0.0168646f
c236 86 0 0.0209491f
c237 83 0 0.0748626f
c238 81 0 0.0321856f
c239 80 0 0.0448656f
c240 79 0 0.00501654f
c241 77 0 0.0508788f
c242 75 0 0.0171332f
c243 74 0 0.0146362f
c244 71 0 0.0200888f
c245 68 0 0.098008f
c246 62 0 0.0809919f
c247 57 0 0.298706f
c248 56 0 0.601791f
c249 51 0 0.0409465f
c250 48 0 0.0284007f
c251 47 0 0.0497827f
c252 45 0 0.0220328f
c253 43 0 0.0758441f
c254 42 0 0.275562f
c255 41 0 0.00547879f
c256 39 0 0.0176565f
c257 37 0 0.00809647f
c258 34 0 0.0265403f
c259 29 0 0.228504f
c260 27 0 0.0263264f
c261 2 0 0.0867449f
r262 89 92 0.245
r263 88 112 0.256667
r264 85 88 0.039111
r265 85 86 0.116667
r266 83 86 0.039111
r267 83 110 0.35
r268 81 109 0.0600596
r269 80 110 0.0684127
r270 79 109 0.49
r271 77 105 0.28
r272 74 77 0.039111
r273 74 75 0.105
r274 72 75 0.039111
r275 72 100 0.28
r276 71 97 0.0933333
r277 68 71 0.039111
r278 68 93 0.478333
r279 62 89 0.0684127
r280 51 79 0.0684127
r281 51 53 0.488662
r282 47 105 0.0684127
r283 47 48 0.488662
r284 45 56 0.238548
r285 41 100 0.0684127
r286 41 43 0.494913
r287 41 42 0.494913
r288 39 57 0.238548
r289 39 42 7.41667
r290 37 97 0.0684127
r291 37 56 0.46875
r292 34 53 0.5
r293 31 48 0.5
r294 29 34 0.279364
r295 29 43 12.6667
r296 27 31 0.279364
r297 27 45 1.33333
r298 8 80 0.0661111
r299 8 81 0.0194444
r300 7 62 0.0661111
r301 2 112 0.0723016
r302 1 93 0.0723016
r303 1 92 0.0723016
.ends

.subckt PM_DFFSRD8%qbint 3 8 9 12 16 27 28 30 31 32 34 37 38 39 40 42 43 45 47
+ 49 50 53 56 58 59 60 63 65 70 75 76 79 80 81 85 89 92 93 94 95 101 107 111 114
+ 115 119 120 122 123 124 126 127 128 130 131 132 134
c279 134 0 0.0157675f
c280 132 0 0.0145347f
c281 131 0 0.00811279f
c282 130 0 0.0315193f
c283 128 0 0.0118147f
c284 127 0 0.0927907f
c285 126 0 0.100399f
c286 124 0 0.00269882f
c287 123 0 0.0971346f
c288 122 0 0.0220213f
c289 120 0 0.034082f
c290 119 0 0.0322288f
c291 115 0 0.11341f
c292 114 0 0.172485f
c293 111 0 0.0646781f
c294 107 0 0.156114f
c295 101 0 0.210404f
c296 95 0 0.00699271f
c297 93 0 0.169529f
c298 92 0 0.352273f
c299 89 0 0.10101f
c300 85 0 0.013464f
c301 82 0 0.0149322f
c302 81 0 0.0182646f
c303 80 0 0.0279299f
c304 79 0 0.0239304f
c305 76 0 0.0222337f
c306 75 0 0.0468881f
c307 70 0 0.0313161f
c308 65 0 0.0166295f
c309 63 0 0.2514f
c310 60 0 0.0279774f
c311 59 0 0.0133159f
c312 58 0 0.0236323f
c313 56 0 0.590896f
c314 53 0 0.410649f
c315 50 0 0.483208f
c316 49 0 0.0998506f
c317 47 0 0.115689f
c318 45 0 0.0940919f
c319 43 0 0.0180274f
c320 42 0 0.1062f
c321 40 0 0.111033f
c322 39 0 0.0175226f
c323 38 0 0.529985f
c324 37 0 0.0588135f
c325 34 0 0.109239f
c326 32 0 0.0553932f
c327 31 0 0.156275f
c328 30 0 0.014193f
c329 28 0 0.0114831f
c330 27 0 0.013181f
r331 134 140 0.07
r332 131 134 0.039111
r333 131 132 0.21
r334 129 132 0.039111
r335 129 130 0.21
r336 127 130 0.039111
r337 127 128 0.746667
r338 126 128 0.039111
r339 125 126 0.77
r340 123 125 0.039111
r341 123 124 0.63
r342 121 124 0.039111
r343 121 122 0.116667
r344 119 122 0.039111
r345 119 120 0.0933333
r346 115 120 0.0517064
r347 113 114 0.793333
r348 111 114 0.039111
r349 111 112 0.35
r350 101 112 0.111111
r351 95 113 0.0314184
r352 95 107 0.0110506
r353 95 116 0.0110506
r354 95 115 0.0583333
r355 95 116 0.116667
r356 95 107 0.14
r357 94 101 0.0116667
r358 89 93 0.407372
r359 83 84 0.785714
r360 75 140 0.0684127
r361 75 76 0.443971
r362 70 93 0.125
r363 70 93 1.125
r364 65 89 2.33333
r365 63 65 0.279364
r366 62 63 4.66667
r367 60 62 0.279364
r368 60 85 0.666667
r369 58 92 0.227193
r370 58 59 1
r371 56 84 0.134114
r372 54 81 0.0135341
r373 53 85 0.282372
r374 51 80 0.185888
r375 50 59 0.266186
r376 49 83 0.0672342
r377 48 82 0.211723
r378 48 49 2.25
r379 47 82 0.211723
r380 46 81 0.267081
r381 46 47 1.91667
r382 45 81 0.267081
r383 44 80 0.0779958
r384 44 45 2.16667
r385 42 82 0.055023
r386 42 43 2.83333
r387 40 43 0.266186
r388 38 80 0.185888
r389 38 39 11.5
r390 36 39 0.279364
r391 36 37 1.33333
r392 34 37 0.279364
r393 34 79 1.5
r394 32 78 0.821614
r395 31 79 0.282372
r396 30 78 0.0672342
r397 29 30 0.833333
r398 27 29 0.279364
r399 27 28 2.5
r400 25 28 0.28152
r401 25 76 0.857143
r402 16 31 1.25
r403 16 32 1
r404 12 40 0.625
r405 9 53 5
r406 9 54 5.375
r407 8 50 5
r408 8 51 5.375
r409 3 84 0.164419
r410 3 56 4.875
.ends

.subckt PM_DFFSRD8%qint 3 8 9 13 14 17 21 22 29 30 31 32 40 47 50 54
c69 54 0 0.0488436f
c70 50 0 0.0590974f
c71 47 0 0.0478484f
c72 40 0 0.137215f
c73 31 0 0.197252f
c74 30 0 0.00560429f
c75 29 0 0.049614f
c76 22 0 0.0315874f
c77 21 0 0.0734346f
c78 17 0 0.0286561f
c79 15 0 0.0302947f
c80 14 0 0.208949f
c81 13 0 0.109109f
c82 9 0 0.438857f
c83 8 0 0.563083f
c84 3 0 0.671641f
r85 47 55 0.163333
r86 44 50 0.0417772
r87 44 54 0.163333
r88 40 47 0.0534439
r89 32 40 0.0544444
r90 31 50 0.0116667
r91 29 55 0.0717477
r92 29 54 0.0717477
r93 25 30 0.185888
r94 21 30 0.0779958
r95 20 22 0.286844
r96 20 21 2.16667
r97 16 29 0.378788
r98 15 30 0.185888
r99 15 16 0.666667
r100 14 17 0.286844
r101 13 29 0.489928
r102 13 14 3
r103 9 25 5.5
r104 8 22 5.5
r105 3 17 6.375
.ends

.subckt PM_DFFSRD8%CK 3 6 9 15 16 18
c19 18 0 0.215201f
c20 16 0 0.275713f
c21 15 0 0.792307f
r22 16 22 0.137684
r23 15 23 0.0601979
r24 14 15 7.66667
r25 9 22 0.661765
r26 9 14 0.441176
r27 6 22 0.157448
r28 6 16 1.125
r29 3 18 0.137684
r30 3 23 1.10294
r31 3 18 0.5
.ends

.subckt PM_DFFSRD8%VDD 1 10 19 20 21 22 23 28 33 38 43 69 70 78 91 94 98 102 103
c151 103 0 1.26998f
c152 102 0 1.29179f
c153 98 0 1.92061f
c154 94 0 2.21273f
c155 91 0 1.54227f
c156 78 0 1.14348f
c157 69 0 0.830585f
c158 38 0 1.19573f
c159 23 0 1.68973f
c160 22 0 0.794481f
c161 21 0 1.43464f
c162 10 0 2.16676f
c163 1 0 2.16193f
r164 102 103 0.343747
r165 97 98 0.158667
r166 93 94 0.186667
r167 90 91 0.22554
r168 70 78 0.0886667
r169 69 102 0.343747
r170 69 98 0.158667
r171 38 43 0.116667
r172 38 103 0.34384
r173 33 97 0.158667
r174 33 94 0.186667
r175 28 93 0.186667
r176 28 91 0.225587
r177 22 90 0.22554
r178 21 22 0.21
r179 21 23 0.373333
r180 20 23 0.163333
r181 19 20 0.14
r182 10 78 0.126
r183 1 70 0.21
r184 1 43 0.200667
.ends

.subckt PM_DFFSRD8%net127 1 2 13 18 19 21
c28 21 0 0.0464737f
c29 19 0 0.123398f
c30 18 0 0.0357714f
c31 13 0 0.1053f
r32 19 21 0.0636395
r33 18 21 0.233333
r34 13 18 0.0517064
r35 2 19 0.0194444
r36 1 13 0.0661111
.ends

.subckt PM_DFFSRD8%n42 1 8 15 18 19 21 23 27
c45 27 0 0.19249f
c46 23 0 0.0196793f
c47 21 0 0.0261283f
c48 19 0 0.0338855f
c49 18 0 0.0601882f
c50 15 0 0.083791f
c51 8 0 0.151882f
r52 23 27 0.933333
r53 20 23 0.039111
r54 20 21 0.116667
r55 18 21 0.039111
r56 18 19 0.186667
r57 15 19 0.0517064
r58 8 27 0.0878572
r59 1 15 0.0661111
.ends

.subckt PM_DFFSRD8%n40 1 6 15 19 20 21 23 24 25 27 28
c82 28 0 0.139142f
c83 27 0 0.0209375f
c84 25 0 0.0208213f
c85 24 0 0.0886556f
c86 23 0 0.0458481f
c87 21 0 0.0037132f
c88 20 0 0.023921f
c89 19 0 0.0249321f
c90 15 0 0.140562f
r91 28 31 0.0800468
r92 27 31 0.0250789
r93 26 27 0.21
r94 24 26 0.039111
r95 24 25 0.63
r96 22 25 0.039111
r97 22 23 0.186667
r98 20 23 0.039111
r99 20 21 0.21
r100 18 21 0.039111
r101 18 19 0.116667
r102 15 19 0.0800468
r103 6 28 0.0194444
r104 1 15 0.0661111
.ends

.subckt PM_DFFSRD8%noxref_17 1 8 15 18 20 23 25
c46 25 0 0.0229618f
c47 23 0 0.0787441f
c48 20 0 0.0172156f
c49 18 0 0.0505668f
c50 15 0 0.0535773f
c51 8 0 0.0989096f
r52 20 25 0.0816667
r53 17 20 0.039111
r54 17 18 0.221667
r55 15 18 0.039111
r56 15 23 0.198333
r57 8 25 0.0723016
r58 1 23 0.0723016
.ends

.subckt PM_DFFSRD8%Q 1 10 27 31 32 34 35 41 47
c54 47 0 0.0168924f
c55 41 0 0.0358551f
c56 35 0 0.031511f
c57 34 0 0.0249382f
c58 32 0 0.0222977f
c59 31 0 0.0129003f
c60 27 0 0.147806f
c61 10 0 0.348102f
c62 1 0 0.390575f
r63 41 47 0.0600596
r64 34 47 0.151667
r65 31 35 0.0517064
r66 31 32 0.151667
r67 29 34 0.039111
r68 28 32 0.039111
r69 27 29 0.28
r70 27 28 0.35
r71 10 35 0.0661111
r72 1 41 0.0661111
.ends

.subckt PM_DFFSRD8%VSS 1 2 19 20 37 38 39 40 45 50 55 86 87 96 108 111 114 115
+ 122 123 127 133 136 137 145 153 154 160 161 163
c216 163 0 0.0167163f
c217 162 0 0.0463594f
c218 161 0 1.26888f
c219 160 0 0.0358919f
c220 154 0 0.03527f
c221 153 0 0.0172644f
c222 145 0 0.146979f
c223 137 0 0.918422f
c224 136 0 0.158476f
c225 133 0 0.0347882f
c226 127 0 0.383664f
c227 123 0 1.11862f
c228 122 0 1.09461f
c229 115 0 1.03035f
c230 114 0 1.73324f
c231 111 0 2.10515f
c232 108 0 1.39559f
c233 86 0 1.69707f
c234 55 0 1.0286f
c235 40 0 1.00092f
c236 39 0 0.797025f
c237 38 0 1.15175f
c238 20 0 0.401152f
c239 19 0 1.97206f
c240 1 0 1.1059f
r241 154 163 0.0532251
r242 153 163 0.0816667
r243 146 162 0.00677755
r244 145 153 0.039111
r245 144 162 0.0427352
r246 144 145 0.641667
r247 138 161 0.00677755
r248 137 162 0.00677755
r249 135 161 0.0427352
r250 135 136 0.641667
r251 133 136 0.039111
r252 133 160 0.0816667
r253 127 160 0.0532251
r254 122 123 0.289333
r255 114 115 0.287747
r256 110 111 0.202207
r257 107 108 0.194413
r258 97 161 0.00677755
r259 96 137 0.028
r260 87 96 0.063
r261 87 138 0.0676667
r262 86 115 0.28784
r263 55 122 0.289333
r264 55 86 0.275333
r265 50 114 0.287747
r266 50 111 0.202253
r267 45 110 0.202207
r268 45 108 0.194507
r269 39 107 0.194413
r270 39 40 0.21
r271 38 40 0.256667
r272 37 38 0.163333
r273 20 154 0.0661111
r274 19 146 0.077
r275 2 127 0.0661111
r276 1 97 0.077
r277 1 123 0.289333
.ends

.subckt PM_DFFSRD8%QN 1 10 27 28 34 40 41 42 47
c30 47 0 0.0801053f
c31 42 0 0.0877092f
c32 41 0 0.0706212f
c33 40 0 0.0854468f
c34 34 0 0.392364f
c35 28 0 0.334858f
c36 27 0 0.466891f
r37 42 45 0.039111
r38 42 47 0.116667
r39 40 44 0.039111
r40 40 41 0.116667
r41 34 47 0.0532251
r42 28 41 0.0517064
r43 27 45 0.315
r44 27 44 0.35
r45 10 28 0.0661111
r46 1 34 0.0661111
.ends

