* File: DFFSRD4.cdl.pex
* Created: Sat Aug 17 14:03:44 2024
* Program "Calibre xRC"
* Version "v2023.1_18.8"
* Nominal Temperature: 25C
* Circuit Temperature: 25C
* 
.subckt PM_DFFSRD4%CKb 1 4 7 8 11 14 18 22 37 39 43 44 46 48 51 52 53 55 57 58
+ 59 63 66 67 68 71 72 75 78 81 82 83 85 86 87 90 91 92 94 95 97 98 100 105 106
+ 107 108 109 111 117 118 121 122 124 127 133 136 139 146 148 149 153 155 158
+ 160 162 164 165 166 168 169 170 172 185 196
c469 196 0 0.310321f
c470 185 0 3.86234e-20
c471 173 0 0.00640079f
c472 172 0 0.0379425f
c473 169 0 0.00373657f
c474 168 0 0.0448366f
c475 166 0 0.0127945f
c476 165 0 0.176941f
c477 164 0 0.0166882f
c478 162 0 0.0168139f
c479 160 0 0.0907383f
c480 158 0 0.0678197f
c481 155 0 0.0630321f
c482 153 0 0.091131f
c483 149 0 0.0250009f
c484 148 0 0.0561693f
c485 146 0 0.046689f
c486 139 0 0.0842451f
c487 136 0 3.33503e-32
c488 133 0 0.0505293f
c489 127 0 0.0147566f
c490 124 0 0.0458703f
c491 122 0 0.0270471f
c492 121 0 0.0500791f
c493 118 0 0.0274642f
c494 117 0 0.0610624f
c495 111 0 0.0555052f
c496 109 0 0.00793355f
c497 108 0 0.115402f
c498 107 0 0.0219785f
c499 106 0 0.0341825f
c500 105 0 0.0233771f
c501 103 0 0.0304294f
c502 100 0 0.00803671f
c503 98 0 0.154062f
c504 97 0 0.049748f
c505 95 0 0.297544f
c506 94 0 0.0697135f
c507 92 0 0.00919368f
c508 91 0 0.417624f
c509 90 0 0.045598f
c510 87 0 0.0314902f
c511 86 0 0.16346f
c512 85 0 0.172283f
c513 83 0 0.0243478f
c514 82 0 0.336123f
c515 81 0 0.0488887f
c516 78 0 0.111246f
c517 75 0 0.228798f
c518 72 0 0.0243746f
c519 71 0 0.125704f
c520 68 0 0.0265632f
c521 67 0 0.0968229f
c522 66 0 0.0287958f
c523 63 0 0.754395f
c524 59 0 0.0432073f
c525 58 0 0.182191f
c526 57 0 0.0221461f
c527 55 0 0.0220804f
c528 53 0 0.0224334f
c529 52 0 0.214126f
c530 51 0 0.0371861f
c531 48 0 0.161952f
c532 46 0 0.110812f
c533 44 0 0.186362f
c534 43 0 0.0243226f
c535 39 0 0.0257536f
c536 37 0 0.19446f
c537 8 0 0.0915535f
c538 1 0 0.0794452f
r539 172 205 0.21
r540 169 172 0.039111
r541 169 170 0.35
r542 167 170 0.039111
r543 167 168 0.21
r544 165 168 0.039111
r545 165 166 1.02667
r546 164 166 0.039111
r547 164 201 0.07
r548 162 196 1.69167
r549 160 162 0.039111
r550 160 193 0.49
r551 158 189 0.443333
r552 155 158 0.039111
r553 155 185 1.10833
r554 154 173 0.00770322
r555 153 154 0.396667
r556 148 174 0.0417772
r557 147 173 0.0296412
r558 147 148 0.256667
r559 146 173 0.0296412
r560 145 149 0.0534439
r561 145 146 0.21
r562 139 205 0.0684127
r563 136 201 0.0684127
r564 133 136 0.166667
r565 127 196 0.0684127
r566 124 127 0.138333
r567 121 193 0.0684127
r568 121 122 0.488662
r569 117 189 0.0684127
r570 117 118 0.488662
r571 114 185 0.0684127
r572 111 114 0.166667
r573 108 109 0.332222
r574 107 108 2.16667
r575 100 153 0.0684127
r576 100 101 0.488662
r577 97 100 0.166667
r578 97 98 0.321996
r579 95 140 0.821614
r580 94 140 0.0672342
r581 93 139 0.681818
r582 93 94 1.16667
r583 91 133 0.298409
r584 91 92 13.1667
r585 90 92 0.279364
r586 89 90 1.33333
r587 86 89 0.286844
r588 84 87 0.286844
r589 84 85 4.33333
r590 82 85 0.279364
r591 82 83 6.41667
r592 81 83 0.279364
r593 80 81 1.5
r594 79 131 0.0293644
r595 78 80 0.279364
r596 78 79 1.75
r597 76 124 0.225711
r598 75 131 0.75
r599 73 122 1
r600 71 73 0.279364
r601 71 72 11
r602 69 72 0.279364
r603 69 118 1
r604 67 111 0.298409
r605 67 68 1.66667
r606 66 68 0.279364
r607 65 110 0.127482
r608 65 66 0.916667
r609 63 110 0.889019
r610 63 109 14.8333
r611 59 106 0.532372
r612 58 107 0.282372
r613 57 106 0.583333
r614 55 57 0.279364
r615 54 55 0.5
r616 52 54 0.279364
r617 52 53 3.33333
r618 50 53 0.279364
r619 50 51 1.16667
r620 45 97 0.298409
r621 44 51 0.279364
r622 44 45 4.91667
r623 43 105 0.666667
r624 40 43 0.279364
r625 40 98 3
r626 39 103 0.833333
r627 37 39 0.279364
r628 37 101 3.16667
r629 22 95 1
r630 18 58 1.25
r631 18 59 1
r632 14 75 0.875
r633 14 76 1.1875
r634 11 48 0.125
r635 11 105 0.407372
r636 11 48 1.125
r637 8 149 0.0311111
r638 7 86 0.9375
r639 7 87 0.9375
r640 4 46 0.125
r641 4 103 0.407372
r642 4 46 0.5
r643 1 174 0.0272222
.ends

.subckt PM_DFFSRD4%CKbb 1 2 5 8 12 16 26 27 28 29 31 33 35 37 43 44 49 50 51 52
+ 55 57 58 59 61 62 63 64 67 68 69 71 73 74 79 80 84 89 91 95 99 100 101 103 106
+ 113 115 119 125 128 132 135 136 137 139 141 142 144 148 150 151 166
c440 166 0 0.0242533f
c441 151 0 0.0154406f
c442 150 0 0.00952282f
c443 148 0 0.0270911f
c444 144 0 0.171583f
c445 142 0 0.0525268f
c446 141 0 0.146558f
c447 139 0 0.178368f
c448 137 0 0.0088097f
c449 136 0 0.115297f
c450 135 0 0.0247458f
c451 132 0 0.0586601f
c452 128 0 0.028931f
c453 125 0 0.0777203f
c454 119 0 0.0893135f
c455 115 0 0.0171f
c456 113 0 0.0337072f
c457 107 0 0.0233689f
c458 106 0 0.0500421f
c459 103 0 0.161262f
c460 101 0 0.0574506f
c461 100 0 0.0325205f
c462 99 0 0.199401f
c463 95 0 0.0517868f
c464 91 0 0.0505397f
c465 89 0 0.00418679f
c466 84 0 0.0722207f
c467 80 0 0.0560535f
c468 79 0 0.0248642f
c469 74 0 0.161964f
c470 73 0 0.0224009f
c471 71 0 0.0897187f
c472 69 0 0.0457076f
c473 68 0 0.118798f
c474 67 0 0.0921315f
c475 64 0 0.0664368f
c476 63 0 0.00545403f
c477 62 0 0.163107f
c478 61 0 0.0222911f
c479 59 0 0.0247821f
c480 58 0 0.554458f
c481 57 0 0.0612091f
c482 55 0 0.0689059f
c483 52 0 0.232021f
c484 51 0 8.66596e-19
c485 50 0 0.114302f
c486 49 0 0.0250788f
c487 44 0 0.0238324f
c488 43 0 0.206452f
c489 37 0 0.12515f
c490 35 0 0.578313f
c491 33 0 0.407426f
c492 31 0 0.0657768f
c493 29 0 0.0220556f
c494 28 0 0.10186f
c495 27 0 0.0500573f
c496 26 0 0.051596f
c497 2 0 0.10328f
c498 1 0 0.107507f
r499 166 168 0.07
r500 145 166 0.00411102
r501 144 173 0.0417772
r502 144 145 1.02667
r503 142 168 0.00411102
r504 142 143 0.35
r505 141 163 0.7
r506 138 139 0.851667
r507 137 138 0.851667
r508 136 141 0.039111
r509 136 139 0.851667
r510 135 137 0.039111
r511 135 159 0.0933333
r512 133 150 0.00770322
r513 132 151 0.0417772
r514 132 133 0.245
r515 126 150 0.0296412
r516 126 148 0.128333
r517 125 150 0.0296412
r518 124 128 0.0534439
r519 124 125 0.338333
r520 115 117 0.5
r521 111 113 1
r522 109 110 0.785714
r523 106 173 0.0233333
r524 106 108 0.488662
r525 106 107 0.488662
r526 103 143 0.056
r527 103 104 0.490196
r528 100 101 1.08333
r529 99 100 0.375
r530 95 97 0.5
r531 91 163 0.0684127
r532 91 93 0.166667
r533 89 159 0.0684127
r534 84 86 0.916667
r535 80 82 0.666667
r536 77 151 0.0233333
r537 74 119 0.282372
r538 73 119 2.16667
r539 70 73 0.279364
r540 70 71 2.66667
r541 68 71 0.279364
r542 68 69 7.66667
r543 67 69 0.279364
r544 66 67 3
r545 65 115 0.0293644
r546 64 66 0.279364
r547 64 65 3.33333
r548 62 117 0.0293644
r549 62 63 5.5
r550 61 63 0.279364
r551 60 61 1
r552 58 60 0.279364
r553 58 59 14.1667
r554 57 59 0.279364
r555 56 113 0.0293644
r556 56 57 1.5
r557 55 111 0.0293644
r558 54 55 1.5
r559 52 110 0.134114
r560 50 54 0.279364
r561 50 51 8
r562 49 109 0.0672342
r563 49 108 0.5
r564 46 51 0.279364
r565 46 107 0.5
r566 44 101 0.282372
r567 43 104 0.185882
r568 40 97 0.0293644
r569 40 99 4.75
r570 38 93 0.298409
r571 37 95 0.0293644
r572 37 38 2.66667
r573 36 84 0.0293644
r574 35 89 0.535714
r575 35 36 11.1667
r576 34 82 0.0293644
r577 33 86 0.0293644
r578 33 34 8.08333
r579 31 80 0.0293644
r580 31 79 1.08333
r581 28 79 0.282372
r582 27 77 0.488662
r583 26 29 0.266186
r584 26 27 0.916667
r585 16 43 1.25
r586 16 44 1.25
r587 12 74 0.625
r588 8 28 0.625
r589 8 29 0.625
r590 5 110 0.164419
r591 5 52 1.125
r592 2 128 0.0311111
r593 1 148 0.0692878
.ends

.subckt PM_DFFSRD4%D 3 7 11 13 15 17 19 21 25 26 29 31 32 36
c83 36 0 0.212288f
c84 32 0 0.190589f
c85 29 0 0.00843617f
c86 26 0 0.046617f
c87 25 0 0.0222833f
c88 21 0 0.0552634f
c89 19 0 0.0205888f
c90 17 0 0.0611319f
c91 15 0 0.209649f
c92 13 0 0.0981615f
c93 11 0 0.123828f
r94 36 45 0.91
r95 33 40 0.0417772
r96 32 36 0.039111
r97 31 32 0.0583333
r98 31 33 0.583333
r99 29 45 0.0684127
r100 26 29 0.166667
r101 21 40 0.0233333
r102 21 23 0.166667
r103 17 26 0.298409
r104 17 25 1.16667
r105 15 25 0.282372
r106 13 23 0.298409
r107 13 19 1.91667
r108 11 19 0.282372
r109 7 15 1.25
r110 3 11 0.625
.ends

.subckt PM_DFFSRD4%n20 1 8 10 15 22 24 35 38 39 40 41 43 45 47 48 50 51 52 54 61
+ 63 64 69 74 76 77 82 83 87 88 93 99 100 105 113 115
c249 115 0 0.194146f
c250 113 0 0.0379462f
c251 105 0 0.0315178f
c252 100 0 0.0817766f
c253 99 0 0.0999491f
c254 93 0 0.0514512f
c255 92 0 0.0525828f
c256 88 0 0.0367621f
c257 87 0 0.0999195f
c258 83 0 0.0699554f
c259 82 0 0.0592541f
c260 77 0 0.0259695f
c261 76 0 0.0227777f
c262 74 0 8.33385e-20
c263 69 0 0.090624f
c264 64 0 0.0136537f
c265 63 0 0.0243372f
c266 61 0 0.0580368f
c267 54 0 0.157537f
c268 52 0 0.0865186f
c269 51 0 0.0796405f
c270 50 0 0.0480188f
c271 48 0 0.0509896f
c272 47 0 0.145003f
c273 45 0 0.0613577f
c274 43 0 0.0437176f
c275 41 0 0.236976f
c276 40 0 0.0268853f
c277 39 0 0.677049f
c278 38 0 0.101133f
c279 35 0 0.654394f
c280 10 0 0.0843002f
r281 113 115 1.05
r282 105 110 0.21
r283 99 100 0.35
r284 92 113 0.0532251
r285 88 100 0.0550476
r286 82 93 0.0945384
r287 82 83 0.488662
r288 77 79 0.833333
r289 74 110 0.0684127
r290 69 105 0.0684127
r291 69 71 0.25
r292 64 66 0.666667
r293 59 87 0.0945384
r294 59 61 0.488662
r295 57 77 0.0293644
r296 57 83 1.25
r297 54 79 0.0293644
r298 54 76 3.41667
r299 52 75 0.884785
r300 51 76 0.282372
r301 50 75 0.0658456
r302 49 50 1.16667
r303 48 74 0.488662
r304 47 49 0.279364
r305 47 48 3.33333
r306 46 66 0.0293644
r307 45 74 0.488662
r308 45 46 1.66667
r309 43 64 0.0293644
r310 43 63 0.75
r311 41 63 0.282372
r312 39 71 0.298409
r313 39 40 13.0833
r314 38 40 0.279364
r315 37 62 0.127482
r316 37 38 1.91667
r317 35 62 0.889019
r318 35 61 14.8333
r319 24 92 0.0661111
r320 24 93 0.0194444
r321 22 41 1.25
r322 15 87 0.0661111
r323 15 88 0.0194444
r324 10 115 0.0723016
r325 8 51 0.625
r326 8 52 0.375
r327 1 99 0.0723016
.ends

.subckt PM_DFFSRD4%RNb 1 2 5 8 12 16 24 27 28 29 30 33 35 36 37 39 42 44 46 48
+ 49 52 55 56 57 59 60 61 63 64 65 67 68 69 71 73 74 77 83 87 88 91 94 98 101
+ 102 103 104 109 114 115 117 119 124 126 132 137 141
c409 141 0 0.00820371f
c410 137 0 0.0245927f
c411 132 0 4.46953e-20
c412 126 0 0.0139949f
c413 124 0 0.0972866f
c414 119 0 0.119011f
c415 117 0 0.14322f
c416 115 0 0.0126312f
c417 114 0 0.104851f
c418 109 0 0.103209f
c419 104 0 0.0449011f
c420 103 0 0.0248792f
c421 102 0 0.0137535f
c422 101 0 0.604871f
c423 98 0 0.0407486f
c424 94 0 0.0567206f
c425 91 0 0.0680613f
c426 88 0 0.0193294f
c427 87 0 0.0579859f
c428 83 0 0.0338831f
c429 77 0 0.0537138f
c430 74 0 0.146017f
c431 73 0 0.0211307f
c432 71 0 0.242915f
c433 69 0 0.0273939f
c434 68 0 0.237757f
c435 67 0 0.0351692f
c436 65 0 0.0281649f
c437 64 0 0.126721f
c438 63 0 0.134519f
c439 61 0 0.0127876f
c440 60 0 0.187989f
c441 59 0 0.112444f
c442 57 0 0.00693136f
c443 56 0 0.141781f
c444 55 0 0.0344886f
c445 52 0 0.0246308f
c446 49 0 0.218969f
c447 48 0 0.0247821f
c448 46 0 0.055877f
c449 44 0 0.0418996f
c450 42 0 0.161009f
c451 39 0 0.71041f
c452 37 0 0.0396952f
c453 36 0 0.0693589f
c454 35 0 8.73864e-19
c455 33 0 0.0596154f
c456 30 0 0.21163f
c457 29 0 0.00626226f
c458 28 0 0.109287f
c459 27 0 0.127981f
c460 24 0 0.418046f
c461 5 0 0.335988f
r462 137 139 0.07
r463 120 137 0.00411102
r464 119 141 0.0417772
r465 119 120 1.65667
r466 118 132 0.0417772
r467 117 139 0.00411102
r468 117 118 0.863333
r469 116 126 0.0161215
r470 115 130 0.0417772
r471 115 116 0.105
r472 114 124 0.0417772
r473 113 126 0.0225096
r474 113 114 0.513333
r475 109 126 0.0161215
r476 101 102 0.407372
r477 98 141 0.0233333
r478 98 100 0.488662
r479 94 132 0.0233333
r480 94 96 0.488662
r481 89 91 1
r482 83 85 0.666667
r483 77 130 0.0233333
r484 77 79 0.166667
r485 74 104 0.532372
r486 73 104 0.833333
r487 71 73 0.279364
r488 70 71 5.25
r489 68 70 0.279364
r490 68 69 3.66667
r491 66 69 0.279364
r492 66 67 0.75
r493 64 67 0.279364
r494 64 65 1.83333
r495 62 65 0.279364
r496 62 63 3.5
r497 60 63 0.279364
r498 60 61 5.66667
r499 59 61 0.279364
r500 58 59 3
r501 56 58 0.279364
r502 56 57 4
r503 55 57 0.279364
r504 54 55 0.666667
r505 52 54 0.279364
r506 52 103 1.66667
r507 49 103 0.282372
r508 48 101 13.3333
r509 46 48 0.279364
r510 46 100 1.5
r511 44 91 0.0293644
r512 44 96 1.25
r513 41 89 0.0293644
r514 41 42 4.25
r515 39 42 0.279364
r516 39 88 12.75
r517 37 87 0.532372
r518 36 88 0.282372
r519 35 87 1.25
r520 33 35 0.279364
r521 32 33 2.5
r522 31 83 0.0293644
r523 30 32 0.279364
r524 30 31 5.5
r525 28 85 0.0293644
r526 28 29 5.25
r527 27 29 0.279364
r528 26 82 0.0987454
r529 26 27 2.75
r530 25 79 0.298409
r531 24 25 9.08333
r532 16 49 1.25
r533 16 102 1.5
r534 12 74 0.375
r535 8 36 0.625
r536 8 37 0.375
r537 5 82 1.69173
r538 5 24 2.16225
r539 2 109 0.0777778
r540 1 124 0.0272222
.ends

.subckt PM_DFFSRD4%RN 3 6 9 11 13 15 17 18 20 24 27 29
c66 29 0 0.152101f
c67 27 0 0.00809647f
c68 24 0 0.0383884f
c69 20 0 0.0541185f
c70 18 0 0.0222103f
c71 17 0 0.0224105f
c72 15 0 0.0789152f
c73 13 0 0.119493f
c74 11 0 0.120478f
c75 9 0 0.21188f
r76 29 35 0.128333
r77 29 40 0.641667
r78 27 40 0.0684127
r79 24 27 0.166667
r80 20 35 0.0684127
r81 20 22 0.166667
r82 15 22 0.298409
r83 15 18 1.5
r84 13 24 0.298409
r85 13 17 2.5
r86 11 18 0.282372
r87 9 17 0.282372
r88 6 9 1.25
r89 3 11 0.625
.ends

.subckt PM_DFFSRD4%SN 3 6 10 14 23 25 27 29 32 33 36 37 38 41 42 44 45 46 48 49
+ 50 52 54 55 60 61 63 65 68 71 73 74 79 83 84 86 88 89 92 93 95 98 100 103 106
+ 107 109 112 119 121 122 125 126 127 133 134 135 137 139 154 162 167 170 174
+ 178
c437 178 0 0.0478448f
c438 174 0 0.0361074f
c439 170 0 0.0186051f
c440 167 0 2.22927e-21
c441 162 0 0.303953f
c442 154 0 0.0767809f
c443 139 0 0.0233996f
c444 137 0 0.119827f
c445 135 0 0.00269882f
c446 134 0 0.0654749f
c447 133 0 0.020844f
c448 127 0 0.0045404f
c449 126 0 0.182181f
c450 125 0 0.0274641f
c451 122 0 0.147235f
c452 121 0 0.0164321f
c453 119 0 0.148046f
c454 112 0 0.15362f
c455 109 0 0.0167827f
c456 107 0 0.030379f
c457 106 0 0.0492602f
c458 100 0 0.0482908f
c459 95 0 0.0545115f
c460 93 0 0.159199f
c461 92 0 0.057195f
c462 89 0 0.118398f
c463 88 0 0.0564411f
c464 86 0 0.0018119f
c465 84 0 0.0651174f
c466 83 0 8.36262e-19
c467 79 0 0.0493461f
c468 74 0 0.0596953f
c469 73 0 0.0228651f
c470 71 0 0.00810239f
c471 68 0 0.00250879f
c472 65 0 0.112717f
c473 63 0 0.188403f
c474 61 0 0.222514f
c475 60 0 8.89644e-19
c476 55 0 0.184346f
c477 54 0 0.0267355f
c478 52 0 0.0587685f
c479 50 0 0.0237404f
c480 49 0 0.125802f
c481 48 0 0.116484f
c482 46 0 0.0280993f
c483 45 0 0.280754f
c484 44 0 0.0382001f
c485 42 0 0.0272155f
c486 41 0 0.0738664f
c487 38 0 0.0714253f
c488 37 0 0.148145f
c489 36 0 0.0289345f
c490 33 0 0.193416f
c491 32 0 0.109882f
c492 29 0 0.100251f
c493 27 0 0.0378918f
c494 25 0 0.477312f
c495 23 0 0.0940073f
c496 22 0 0.070025f
r497 176 178 0.14
r498 151 154 0.49
r499 139 178 0.00411102
r500 139 183 0.151667
r501 136 137 1.00333
r502 135 136 1.00333
r503 134 187 0.0417772
r504 134 137 1.00333
r505 133 135 0.039111
r506 133 175 0.07
r507 130 176 0.00411102
r508 130 174 0.268333
r509 128 170 0.0933333
r510 126 128 0.039111
r511 126 127 0.688333
r512 124 127 0.039111
r513 124 125 0.128333
r514 122 125 0.039111
r515 122 167 0.501667
r516 121 162 1.645
r517 119 121 0.039111
r518 119 159 0.665
r519 112 142 0.443333
r520 112 147 0.326667
r521 111 187 0.0233333
r522 106 183 0.0684127
r523 106 107 0.488662
r524 103 175 0.0684127
r525 103 174 0.0684127
r526 100 103 0.166667
r527 98 170 0.0684127
r528 95 98 0.166667
r529 92 167 0.0684127
r530 92 93 0.488662
r531 88 162 0.0684127
r532 88 89 0.488662
r533 86 159 0.0684127
r534 84 86 0.357995
r535 83 151 0.0684127
r536 79 154 0.0684127
r537 79 81 0.488662
r538 74 76 0.333333
r539 71 142 0.0684127
r540 68 147 0.0684127
r541 65 68 0.333333
r542 63 111 0.760609
r543 61 109 0.282372
r544 60 109 1.16667
r545 57 60 0.279364
r546 57 107 0.5
r547 56 95 0.298409
r548 55 100 0.298409
r549 55 56 4.66667
r550 54 93 2.83333
r551 52 54 0.279364
r552 51 52 1.16667
r553 49 51 0.279364
r554 49 50 2.33333
r555 48 50 0.279364
r556 47 48 3.25
r557 45 47 0.279364
r558 45 46 4.33333
r559 43 46 0.279364
r560 43 44 1.41667
r561 41 44 0.279364
r562 41 42 0.916667
r563 39 42 0.279364
r564 39 89 3.33333
r565 38 83 0.4
r566 37 84 0.280087
r567 37 38 5.83333
r568 36 81 1
r569 31 32 5.61
r570 30 76 0.0293644
r571 30 31 5.61
r572 29 36 0.279364
r573 29 32 5.61333
r574 27 74 0.0293644
r575 27 73 0.75
r576 26 65 0.298409
r577 25 33 1.16995
r578 25 26 9.91667
r579 22 73 0.282372
r580 14 61 1.25
r581 10 33 1
r582 6 63 0.375
r583 3 23 0.166203
r584 3 71 0.594406
r585 3 22 0.5
r586 3 23 0.5
.ends

.subckt PM_DFFSRD4%mout 1 2 3 4 5 12 14 21 31 32 34 36 45 46 57 59 60 61 66 67
+ 69 72 73 74 76 77 79 82 85 86 92 94 95 96 97 98 103 108 120 121 124
c268 124 0 0.0421877f
c269 121 0 0.0276857f
c270 120 0 0.0444965f
c271 108 0 0.00811334f
c272 103 0 0.00809665f
c273 98 0 0.00122238f
c274 97 0 0.0382069f
c275 96 0 0.0337924f
c276 95 0 0.0267161f
c277 94 0 0.137731f
c278 92 0 0.0849968f
c279 86 0 0.0543277f
c280 85 0 0.0298746f
c281 82 0 0.0605146f
c282 79 0 0.0441202f
c283 77 0 0.0841489f
c284 76 0 0.0580757f
c285 74 0 0.0197423f
c286 73 0 0.110689f
c287 72 0 0.0831433f
c288 69 0 0.0456741f
c289 67 0 0.0265921f
c290 66 0 0.0443653f
c291 61 0 0.0390506f
c292 60 0 0.0457462f
c293 59 0 0.00810973f
c294 57 0 0.0336768f
c295 46 0 0.104737f
c296 45 0 0.0482389f
c297 36 0 0.193468f
c298 34 0 0.381441f
c299 32 0 0.0791889f
c300 31 0 0.250957f
c301 5 0 0.0790488f
c302 2 0 0.0881449f
r303 121 124 0.245
r304 116 117 0.0450794
r305 95 96 0.233333
r306 85 121 0.0684127
r307 85 86 0.0505556
r308 84 116 0.0417772
r309 84 120 0.21
r310 82 117 0.35
r311 80 108 0.0417772
r312 79 82 0.039111
r313 79 80 0.186667
r314 78 98 0.0296412
r315 77 103 0.0417772
r316 77 78 0.933333
r317 76 99 0.0417772
r318 75 98 0.00770322
r319 75 76 0.396667
r320 73 98 0.0296412
r321 73 74 1.06167
r322 71 74 0.039111
r323 71 72 0.443333
r324 69 72 0.039111
r325 69 97 0.151667
r326 67 96 0.0532251
r327 66 97 0.0684127
r328 61 94 0.0684127
r329 60 95 0.0684127
r330 59 94 0.7
r331 57 92 0.0417772
r332 56 59 0.039111
r333 56 57 0.198333
r334 45 116 0.0233333
r335 45 46 0.488662
r336 43 108 0.0233333
r337 41 103 0.0233333
r338 38 46 3
r339 36 43 0.602895
r340 34 38 0.279364
r341 34 35 10.25
r342 32 41 0.602895
r343 31 35 0.921376
r344 21 31 1.25
r345 21 32 1.25
r346 14 66 0.0661111
r347 14 67 0.0194444
r348 12 36 0.625
r349 5 99 0.0272222
r350 4 86 0.0155556
r351 4 120 0.0878572
r352 3 60 0.0661111
r353 3 61 0.0194444
r354 2 124 0.0723016
r355 1 92 0.0272222
.ends

.subckt PM_DFFSRD4%n35 1 2 3 8 27 29 34 36 39 41 42 43 45 47 48 51 56 57 62 68
+ 71 74 75 77 79 80 81 83 86 88 89 92 93 100 109 110 112
c227 112 0 0.0557743f
c228 110 0 0.0342934f
c229 109 0 0.0748823f
c230 100 0 0.0361668f
c231 93 0 0.0600998f
c232 92 0 0.0505969f
c233 89 0 0.0295109f
c234 88 0 0.0168646f
c235 86 0 0.0209491f
c236 83 0 0.0748626f
c237 81 0 0.0321856f
c238 80 0 0.0448656f
c239 79 0 0.00501654f
c240 77 0 0.0460156f
c241 75 0 0.0143237f
c242 74 0 0.0146362f
c243 71 0 0.0187724f
c244 68 0 0.0963392f
c245 62 0 0.0809919f
c246 57 0 0.16671f
c247 56 0 0.337412f
c248 51 0 0.0409465f
c249 48 0 0.0247492f
c250 47 0 0.0495851f
c251 45 0 0.0220328f
c252 43 0 0.0746613f
c253 42 0 0.149744f
c254 41 0 0.00547879f
c255 39 0 0.00809647f
c256 36 0 0.0176565f
c257 34 0 0.0265403f
c258 29 0 0.228504f
c259 27 0 0.0263264f
c260 3 0 0.0867449f
r261 89 92 0.245
r262 88 112 0.256667
r263 85 88 0.039111
r264 85 86 0.116667
r265 83 86 0.039111
r266 83 110 0.35
r267 81 109 0.0600596
r268 80 110 0.0684127
r269 79 109 0.49
r270 77 105 0.28
r271 74 77 0.039111
r272 74 75 0.105
r273 72 75 0.039111
r274 72 100 0.28
r275 71 97 0.0933333
r276 68 71 0.039111
r277 68 93 0.478333
r278 62 89 0.0684127
r279 51 79 0.0684127
r280 51 53 0.488662
r281 47 105 0.0684127
r282 47 48 0.488662
r283 45 56 0.238548
r284 41 100 0.0684127
r285 41 43 0.494913
r286 41 42 0.494913
r287 39 97 0.0684127
r288 39 56 0.46875
r289 36 57 0.238548
r290 36 42 4.91667
r291 34 53 0.5
r292 31 48 0.5
r293 29 34 0.279364
r294 29 43 12.6667
r295 27 31 0.279364
r296 27 45 1.33333
r297 8 80 0.0661111
r298 8 81 0.0194444
r299 3 112 0.0723016
r300 2 62 0.0661111
r301 1 93 0.0723016
r302 1 92 0.0723016
.ends

.subckt PM_DFFSRD4%qbint 3 6 9 12 15 19 31 32 34 35 36 38 41 43 44 46 47 49 50
+ 52 53 55 56 59 62 63 66 68 69 75 76 80 83 87 90 91 95 96 98 99 100 102 103 104
+ 106 107 108 110
c255 111 0 0.00699271f
c256 110 0 0.0157675f
c257 108 0 0.0145347f
c258 107 0 0.00811279f
c259 106 0 0.0315193f
c260 104 0 0.0118147f
c261 103 0 0.0927907f
c262 102 0 0.0998998f
c263 100 0 0.00269882f
c264 99 0 0.0971346f
c265 98 0 0.0198947f
c266 96 0 0.034082f
c267 95 0 0.0322288f
c268 91 0 0.0377361f
c269 90 0 0.145675f
c270 87 0 0.0633854f
c271 83 0 0.0872141f
c272 80 0 0.146627f
c273 72 0 0.00869129f
c274 69 0 0.581335f
c275 68 0 0.282329f
c276 66 0 0.0239304f
c277 63 0 0.0222337f
c278 62 0 0.0486067f
c279 59 0 0.122156f
c280 56 0 0.013879f
c281 55 0 0.108496f
c282 53 0 0.0666469f
c283 52 0 0.222119f
c284 50 0 0.24145f
c285 49 0 0.123211f
c286 47 0 0.0186876f
c287 46 0 0.117139f
c288 44 0 0.111033f
c289 43 0 0.0175226f
c290 41 0 0.0687784f
c291 38 0 0.112377f
c292 36 0 0.054201f
c293 35 0 0.156275f
c294 34 0 0.0141113f
c295 32 0 0.0114831f
c296 31 0 0.013181f
c297 12 0 0.207008f
c298 6 0 0.287789f
r299 110 115 0.07
r300 107 110 0.039111
r301 107 108 0.21
r302 105 108 0.039111
r303 105 106 0.21
r304 103 106 0.039111
r305 103 104 0.746667
r306 102 104 0.039111
r307 101 102 0.77
r308 99 101 0.039111
r309 99 100 0.63
r310 97 100 0.039111
r311 97 98 0.116667
r312 95 98 0.039111
r313 95 96 0.0933333
r314 92 111 0.0110506
r315 91 96 0.0517064
r316 89 111 0.0314184
r317 89 90 0.793333
r318 87 90 0.039111
r319 87 88 0.35
r320 83 111 0.0110506
r321 80 88 0.111111
r322 76 91 0.0116667
r323 76 92 0.0466667
r324 76 83 0.0233333
r325 75 80 0.0233333
r326 73 74 1.02041
r327 62 115 0.0684127
r328 62 63 0.443971
r329 57 69 0.0993442
r330 57 58 4.75
r331 55 59 0.266186
r332 55 56 2.66667
r333 53 74 0.136556
r334 52 56 0.266186
r335 51 72 0.211723
r336 50 58 0.279364
r337 50 51 8
r338 49 73 0.0623336
r339 48 72 0.055023
r340 48 49 2.25
r341 46 72 0.211723
r342 46 47 2.58333
r343 44 47 0.266186
r344 43 68 5.5
r345 40 43 0.279364
r346 40 41 1.33333
r347 38 41 0.279364
r348 38 66 1.5
r349 36 65 0.821614
r350 35 66 0.282372
r351 34 65 0.0672342
r352 33 34 0.833333
r353 31 33 0.279364
r354 31 32 2.5
r355 29 32 0.28152
r356 29 63 0.857143
r357 19 35 1.25
r358 19 36 1
r359 15 44 0.625
r360 12 69 1.875
r361 9 59 0.625
r362 6 69 5.625
r363 6 68 5.28237
r364 3 74 0.159559
r365 3 52 2.375
r366 3 53 2.375
.ends

.subckt PM_DFFSRD4%qint 3 6 7 8 14 15 19 20 21 23 24 25 26 29 35 40 43 47 49
c63 49 0 0.0116267f
c64 47 0 0.0766062f
c65 43 0 0.103764f
c66 40 0 0.0644477f
c67 35 0 0.146182f
c68 30 0 0.0110414f
c69 29 0 0.0231957f
c70 26 0 0.384786f
c71 25 0 0.0261709f
c72 24 0 0.0461471f
c73 23 0 0.201001f
c74 21 0 0.0391389f
c75 20 0 0.0678759f
c76 19 0 0.0146863f
c77 15 0 0.0286561f
c78 14 0 0.201874f
c79 7 0 0.11616f
c80 6 0 0.682697f
r81 44 49 0.00770322
r82 43 44 0.361667
r83 41 49 0.0296412
r84 41 47 0.233333
r85 40 49 0.0296412
r86 39 40 0.233333
r87 35 39 0.0534439
r88 29 43 0.0684127
r89 29 30 0.488662
r90 24 26 0.266186
r91 24 25 1.08333
r92 23 25 0.279364
r93 22 23 3.58333
r94 21 29 0.488662
r95 20 22 0.279364
r96 20 21 1
r97 19 30 0.75
r98 14 19 0.279364
r99 13 15 0.286844
r100 13 14 3
r101 8 35 0.0622222
r102 7 47 0.0692878
r103 6 15 5.75
r104 3 26 2.5
.ends

.subckt PM_DFFSRD4%CK 3 6 9 15 16 18
c19 18 0 0.215201f
c20 16 0 0.275713f
c21 15 0 0.792307f
r22 16 22 0.137684
r23 15 23 0.0601979
r24 14 15 7.66667
r25 9 22 0.661765
r26 9 14 0.441176
r27 6 22 0.157448
r28 6 16 1.125
r29 3 18 0.137684
r30 3 23 1.10294
r31 3 18 0.5
.ends

.subckt PM_DFFSRD4%VSS 1 10 19 20 21 22 23 28 33 38 62 70 81 84 87 88 94
c147 94 0 1.73413f
c148 88 0 1.03035f
c149 87 0 1.73324f
c150 84 0 2.10515f
c151 81 0 1.39559f
c152 62 0 1.07219f
c153 38 0 1.13256f
c154 23 0 1.00092f
c155 22 0 2.33552f
c156 21 0 0.797025f
c157 20 0 1.15175f
c158 10 0 2.21775f
r159 93 94 0.22708
r160 87 88 0.287747
r161 83 84 0.202207
r162 80 81 0.194413
r163 62 88 0.28784
r164 38 93 0.22708
r165 38 62 0.247333
r166 33 87 0.287747
r167 33 84 0.202253
r168 28 83 0.202207
r169 28 81 0.194507
r170 22 70 0.0956667
r171 21 80 0.194413
r172 21 23 0.21
r173 20 23 0.256667
r174 19 20 0.163333
r175 10 70 0.0956667
r176 1 22 0.14
r177 1 94 0.227173
.ends

.subckt PM_DFFSRD4%VDD 1 6 11 12 13 14 15 16 21 26 31 36 59 67 80 83 87 88
c146 88 0 1.18922f
c147 87 0 1.20186f
c148 83 0 2.21273f
c149 80 0 1.54227f
c150 67 0 0.894054f
c151 59 0 2.46469f
c152 31 0 1.12163f
c153 16 0 1.68973f
c154 14 0 0.794481f
c155 13 0 1.43464f
c156 6 0 1.91501f
c157 1 0 1.5038f
r158 87 88 0.322747
r159 82 83 0.186667
r160 79 80 0.22554
r161 59 87 0.322747
r162 31 36 0.116667
r163 31 88 0.32284
r164 26 59 0.455
r165 26 83 0.186667
r166 21 82 0.186667
r167 21 80 0.225587
r168 15 67 0.063
r169 14 79 0.22554
r170 13 14 0.21
r171 13 16 0.373333
r172 12 16 0.163333
r173 11 12 0.14
r174 6 67 0.198333
r175 1 15 0.168
r176 1 36 0.191333
.ends

.subckt PM_DFFSRD4%net53 1 2 13 18 19 21
c28 21 0 0.0464737f
c29 19 0 0.123398f
c30 18 0 0.0357714f
c31 13 0 0.1053f
r32 19 21 0.0636395
r33 18 21 0.233333
r34 13 18 0.0517064
r35 2 19 0.0194444
r36 1 13 0.0661111
.ends

.subckt PM_DFFSRD4%n42 1 8 15 18 19 21 23 27
c44 27 0 0.19249f
c45 23 0 0.0196793f
c46 21 0 0.0261283f
c47 19 0 0.0338855f
c48 18 0 0.0601882f
c49 15 0 0.083791f
c50 8 0 0.151964f
r51 23 27 0.933333
r52 20 23 0.039111
r53 20 21 0.116667
r54 18 21 0.039111
r55 18 19 0.186667
r56 15 19 0.0517064
r57 8 27 0.0878572
r58 1 15 0.0661111
.ends

.subckt PM_DFFSRD4%n40 1 6 15 19 20 21 23 24 25 27 28
c82 28 0 0.138826f
c83 27 0 0.0187926f
c84 25 0 0.0208213f
c85 24 0 0.0886556f
c86 23 0 0.0457445f
c87 21 0 0.0037132f
c88 20 0 0.023921f
c89 19 0 0.0248176f
c90 15 0 0.140381f
r91 28 31 0.0800468
r92 27 31 0.0250789
r93 26 27 0.21
r94 24 26 0.039111
r95 24 25 0.63
r96 22 25 0.039111
r97 22 23 0.186667
r98 20 23 0.039111
r99 20 21 0.21
r100 18 21 0.039111
r101 18 19 0.116667
r102 15 19 0.0800468
r103 6 28 0.0194444
r104 1 15 0.0661111
.ends

.subckt PM_DFFSRD4%noxref_18 1 8 15 18 20 23 25
c46 25 0 0.0207723f
c47 23 0 0.0787441f
c48 20 0 0.0163361f
c49 18 0 0.0547438f
c50 15 0 0.053468f
c51 8 0 0.109236f
r52 20 25 0.0816667
r53 17 20 0.039111
r54 17 18 0.221667
r55 15 18 0.039111
r56 15 23 0.198333
r57 8 25 0.0723016
r58 1 23 0.0723016
.ends

.subckt PM_DFFSRD4%Q 1 6 21 22 27 32 37 38
c47 38 0 0.00699271f
c48 37 0 0.00699271f
c49 32 0 0.119982f
c50 27 0 0.0716507f
c51 22 0 0.332822f
c52 21 0 0.179824f
c53 1 0 0.110652f
r54 34 38 0.0110506
r55 32 37 0.0110506
r56 30 38 0.0314184
r57 29 37 0.0314184
r58 27 38 0.0110506
r59 22 37 0.0110506
r60 21 30 0.256667
r61 21 29 0.28
r62 6 32 0.07
r63 6 22 0.0466667
r64 1 34 0.0855556
r65 1 27 0.0311111
.ends

.subckt PM_DFFSRD4%QN 1 6 21 22 26 38 39
c29 39 0 0.00699271f
c30 38 0 0.00699271f
c31 26 0 0.0814562f
c32 22 0 0.215165f
c33 21 0 0.376324f
c34 6 0 0.367688f
c35 1 0 0.252389f
r36 35 39 0.0110506
r37 31 38 0.0110506
r38 29 39 0.0314184
r39 28 38 0.0314184
r40 26 39 0.0110506
r41 22 38 0.0110506
r42 21 29 0.256667
r43 21 28 0.28
r44 6 31 0.0738889
r45 6 22 0.0427778
r46 1 35 0.112778
r47 1 26 0.00388889
.ends

