* File: DFFSRD1.cdl.pex
* Created: Sat Aug 17 13:59:43 2024
* Program "Calibre xRC"
* Version "v2023.1_18.8"
* Nominal Temperature: 25C
* Circuit Temperature: 25C
* 
.subckt PM_DFFSRD1%CKb 1 4 7 8 11 14 18 22 37 39 43 44 46 48 51 52 53 55 57 58
+ 59 63 66 67 68 71 72 75 78 81 82 83 85 86 87 90 91 92 94 95 97 98 100 105 106
+ 107 108 109 111 117 118 121 122 124 127 133 136 139 146 148 149 153 155 158
+ 160 162 164 165 166 168 169 170 172 185 196
c467 196 0 0.310321f
c468 185 0 3.86234e-20
c469 173 0 0.00640079f
c470 172 0 0.0379425f
c471 169 0 0.00373657f
c472 168 0 0.0448366f
c473 166 0 0.0127945f
c474 165 0 0.176941f
c475 164 0 0.0166882f
c476 162 0 0.0168139f
c477 160 0 0.0907383f
c478 158 0 0.0678197f
c479 155 0 0.0630321f
c480 153 0 0.091131f
c481 149 0 0.0250009f
c482 148 0 0.0561693f
c483 146 0 0.046689f
c484 139 0 0.0842451f
c485 136 0 1.65656e-30
c486 133 0 0.050463f
c487 127 0 0.0147566f
c488 124 0 0.0459468f
c489 122 0 0.0270471f
c490 121 0 0.0501123f
c491 118 0 0.0274642f
c492 117 0 0.0603322f
c493 111 0 0.0555052f
c494 109 0 0.00793355f
c495 108 0 0.115402f
c496 107 0 0.0219785f
c497 106 0 0.0341825f
c498 105 0 0.0233771f
c499 103 0 0.0304294f
c500 100 0 0.00803671f
c501 98 0 0.154062f
c502 97 0 0.049842f
c503 95 0 0.297544f
c504 94 0 0.0697135f
c505 92 0 0.00919368f
c506 91 0 0.352855f
c507 90 0 0.0460399f
c508 87 0 0.0314902f
c509 86 0 0.16346f
c510 85 0 0.172714f
c511 83 0 0.0243478f
c512 82 0 0.336123f
c513 81 0 0.0488887f
c514 78 0 0.111246f
c515 75 0 0.228798f
c516 72 0 0.0243746f
c517 71 0 0.125704f
c518 68 0 0.0265632f
c519 67 0 0.0968229f
c520 66 0 0.0287958f
c521 63 0 0.754395f
c522 59 0 0.0432073f
c523 58 0 0.182191f
c524 57 0 0.0221461f
c525 55 0 0.0220804f
c526 53 0 0.0224334f
c527 52 0 0.214126f
c528 51 0 0.0371861f
c529 48 0 0.161952f
c530 46 0 0.110812f
c531 44 0 0.186362f
c532 43 0 0.0243226f
c533 39 0 0.0257536f
c534 37 0 0.19446f
c535 8 0 0.0915535f
c536 1 0 0.0794452f
r537 172 205 0.21
r538 169 172 0.039111
r539 169 170 0.35
r540 167 170 0.039111
r541 167 168 0.21
r542 165 168 0.039111
r543 165 166 1.02667
r544 164 166 0.039111
r545 164 201 0.07
r546 162 196 1.69167
r547 160 162 0.039111
r548 160 193 0.49
r549 158 189 0.443333
r550 155 158 0.039111
r551 155 185 1.10833
r552 154 173 0.00770322
r553 153 154 0.396667
r554 148 174 0.0417772
r555 147 173 0.0296412
r556 147 148 0.256667
r557 146 173 0.0296412
r558 145 149 0.0534439
r559 145 146 0.21
r560 139 205 0.0684127
r561 136 201 0.0684127
r562 133 136 0.166667
r563 127 196 0.0684127
r564 124 127 0.138333
r565 121 193 0.0684127
r566 121 122 0.488662
r567 117 189 0.0684127
r568 117 118 0.488662
r569 114 185 0.0684127
r570 111 114 0.166667
r571 108 109 0.332222
r572 107 108 2.16667
r573 100 153 0.0684127
r574 100 101 0.488662
r575 97 100 0.166667
r576 97 98 0.321996
r577 95 140 0.821614
r578 94 140 0.0672342
r579 93 139 0.681818
r580 93 94 1.16667
r581 91 133 0.298409
r582 91 92 11.5
r583 90 92 0.279364
r584 89 90 1.33333
r585 86 89 0.286844
r586 84 87 0.286844
r587 84 85 4.33333
r588 82 85 0.279364
r589 82 83 6.41667
r590 81 83 0.279364
r591 80 81 1.5
r592 79 131 0.0293644
r593 78 80 0.279364
r594 78 79 1.75
r595 76 124 0.225711
r596 75 131 0.75
r597 73 122 1
r598 71 73 0.279364
r599 71 72 11
r600 69 72 0.279364
r601 69 118 1
r602 67 111 0.298409
r603 67 68 1.66667
r604 66 68 0.279364
r605 65 110 0.127482
r606 65 66 0.916667
r607 63 110 0.889019
r608 63 109 14.8333
r609 59 106 0.532372
r610 58 107 0.282372
r611 57 106 0.583333
r612 55 57 0.279364
r613 54 55 0.5
r614 52 54 0.279364
r615 52 53 3.33333
r616 50 53 0.279364
r617 50 51 1.16667
r618 45 97 0.298409
r619 44 51 0.279364
r620 44 45 4.91667
r621 43 105 0.666667
r622 40 43 0.279364
r623 40 98 3
r624 39 103 0.833333
r625 37 39 0.279364
r626 37 101 3.16667
r627 22 95 1
r628 18 58 1.25
r629 18 59 1
r630 14 75 0.875
r631 14 76 1.1875
r632 11 48 0.125
r633 11 105 0.407372
r634 11 48 1.125
r635 8 149 0.0311111
r636 7 86 0.9375
r637 7 87 0.9375
r638 4 46 0.125
r639 4 103 0.407372
r640 4 46 0.5
r641 1 174 0.0272222
.ends

.subckt PM_DFFSRD1%CKbb 1 2 5 8 12 16 26 27 28 29 31 33 35 37 43 44 49 50 51 52
+ 55 57 58 59 61 62 63 64 67 68 69 71 73 74 79 80 84 89 91 95 99 100 101 103 106
+ 113 115 119 125 128 132 135 136 137 139 141 142 144 148 150 151 166
c440 166 0 0.0242533f
c441 151 0 0.0154406f
c442 150 0 0.00952282f
c443 148 0 0.0270911f
c444 144 0 0.171583f
c445 142 0 0.0525268f
c446 141 0 0.146558f
c447 139 0 0.178368f
c448 137 0 0.0088097f
c449 136 0 0.115297f
c450 135 0 0.0247458f
c451 132 0 0.0586601f
c452 128 0 0.028931f
c453 125 0 0.0777203f
c454 119 0 0.0893104f
c455 115 0 0.0171f
c456 113 0 0.0337072f
c457 107 0 0.0233689f
c458 106 0 0.0500915f
c459 103 0 0.161263f
c460 101 0 0.0574506f
c461 100 0 0.0325205f
c462 99 0 0.199401f
c463 95 0 0.0517868f
c464 91 0 0.0505397f
c465 89 0 0.00418679f
c466 84 0 0.0722207f
c467 80 0 0.0560535f
c468 79 0 0.0248642f
c469 74 0 0.162762f
c470 73 0 0.0224009f
c471 71 0 0.0897149f
c472 69 0 0.0457436f
c473 68 0 0.118784f
c474 67 0 0.0921315f
c475 64 0 0.066458f
c476 63 0 0.00545403f
c477 62 0 0.163107f
c478 61 0 0.0222525f
c479 59 0 0.0247821f
c480 58 0 0.47698f
c481 57 0 0.0617861f
c482 55 0 0.0689059f
c483 52 0 0.232021f
c484 51 0 8.66596e-19
c485 50 0 0.11469f
c486 49 0 0.0250788f
c487 44 0 0.0238324f
c488 43 0 0.206452f
c489 37 0 0.12515f
c490 35 0 0.578337f
c491 33 0 0.407426f
c492 31 0 0.0657768f
c493 29 0 0.0220556f
c494 28 0 0.10186f
c495 27 0 0.050133f
c496 26 0 0.051596f
c497 2 0 0.10328f
c498 1 0 0.107507f
r499 166 168 0.07
r500 145 166 0.00411102
r501 144 173 0.0417772
r502 144 145 1.02667
r503 142 168 0.00411102
r504 142 143 0.35
r505 141 163 0.7
r506 138 139 0.851667
r507 137 138 0.851667
r508 136 141 0.039111
r509 136 139 0.851667
r510 135 137 0.039111
r511 135 159 0.0933333
r512 133 150 0.00770322
r513 132 151 0.0417772
r514 132 133 0.245
r515 126 150 0.0296412
r516 126 148 0.128333
r517 125 150 0.0296412
r518 124 128 0.0534439
r519 124 125 0.338333
r520 115 117 0.5
r521 111 113 1
r522 109 110 0.785714
r523 106 173 0.0233333
r524 106 108 0.488662
r525 106 107 0.488662
r526 103 143 0.056
r527 103 104 0.490196
r528 100 101 1.08333
r529 99 100 0.375
r530 95 97 0.5
r531 91 163 0.0684127
r532 91 93 0.166667
r533 89 159 0.0684127
r534 84 86 0.916667
r535 80 82 0.666667
r536 77 151 0.0233333
r537 74 119 0.282372
r538 73 119 2.16667
r539 70 73 0.279364
r540 70 71 2.66667
r541 68 71 0.279364
r542 68 69 7.66667
r543 67 69 0.279364
r544 66 67 3
r545 65 115 0.0293644
r546 64 66 0.279364
r547 64 65 3.33333
r548 62 117 0.0293644
r549 62 63 5.5
r550 61 63 0.279364
r551 60 61 1
r552 58 60 0.279364
r553 58 59 12.5
r554 57 59 0.279364
r555 56 113 0.0293644
r556 56 57 1.5
r557 55 111 0.0293644
r558 54 55 1.5
r559 52 110 0.134114
r560 50 54 0.279364
r561 50 51 8
r562 49 109 0.0672342
r563 49 108 0.5
r564 46 51 0.279364
r565 46 107 0.5
r566 44 101 0.282372
r567 43 104 0.185882
r568 40 97 0.0293644
r569 40 99 4.75
r570 38 93 0.298409
r571 37 95 0.0293644
r572 37 38 2.66667
r573 36 84 0.0293644
r574 35 89 0.535714
r575 35 36 11.1667
r576 34 82 0.0293644
r577 33 86 0.0293644
r578 33 34 8.08333
r579 31 80 0.0293644
r580 31 79 1.08333
r581 28 79 0.282372
r582 27 77 0.488662
r583 26 29 0.266186
r584 26 27 0.916667
r585 16 43 1.25
r586 16 44 1.25
r587 12 74 0.625
r588 8 28 0.625
r589 8 29 0.625
r590 5 110 0.164419
r591 5 52 1.125
r592 2 128 0.0311111
r593 1 148 0.0692878
.ends

.subckt PM_DFFSRD1%D 3 7 11 13 15 17 19 21 25 26 29 31 32 36
c82 36 0 0.212288f
c83 32 0 0.190589f
c84 29 0 0.00843617f
c85 26 0 0.046671f
c86 25 0 0.0222833f
c87 21 0 0.0553321f
c88 19 0 0.0205888f
c89 17 0 0.0611319f
c90 15 0 0.209649f
c91 13 0 0.0981615f
c92 11 0 0.123828f
r93 36 45 0.91
r94 33 40 0.0417772
r95 32 36 0.039111
r96 31 32 0.0583333
r97 31 33 0.583333
r98 29 45 0.0684127
r99 26 29 0.166667
r100 21 40 0.0233333
r101 21 23 0.166667
r102 17 26 0.298409
r103 17 25 1.16667
r104 15 25 0.282372
r105 13 23 0.298409
r106 13 19 1.91667
r107 11 19 0.282372
r108 7 15 1.25
r109 3 11 0.625
.ends

.subckt PM_DFFSRD1%n20 1 8 10 15 22 24 35 38 39 40 41 43 45 47 48 50 51 52 54 61
+ 63 64 69 74 76 77 82 83 87 88 93 99 100 105 113 115
c249 115 0 0.194146f
c250 113 0 0.0379462f
c251 105 0 0.0315178f
c252 100 0 0.0817766f
c253 99 0 0.0999491f
c254 93 0 0.0514512f
c255 92 0 0.0525828f
c256 88 0 0.0367621f
c257 87 0 0.0999195f
c258 83 0 0.0699554f
c259 82 0 0.0592541f
c260 77 0 0.0259695f
c261 76 0 0.0227777f
c262 74 0 8.33385e-20
c263 69 0 0.090624f
c264 64 0 0.0136642f
c265 63 0 0.0243372f
c266 61 0 0.0580368f
c267 54 0 0.157537f
c268 52 0 0.0865186f
c269 51 0 0.0796405f
c270 50 0 0.0480188f
c271 48 0 0.0509899f
c272 47 0 0.145003f
c273 45 0 0.0613577f
c274 43 0 0.0437176f
c275 41 0 0.236976f
c276 40 0 0.0268853f
c277 39 0 0.677049f
c278 38 0 0.101133f
c279 35 0 0.654394f
c280 10 0 0.0843002f
r281 113 115 1.05
r282 105 110 0.21
r283 99 100 0.35
r284 92 113 0.0532251
r285 88 100 0.0550476
r286 82 93 0.0945384
r287 82 83 0.488662
r288 77 79 0.833333
r289 74 110 0.0684127
r290 69 105 0.0684127
r291 69 71 0.25
r292 64 66 0.666667
r293 59 87 0.0945384
r294 59 61 0.488662
r295 57 77 0.0293644
r296 57 83 1.25
r297 54 79 0.0293644
r298 54 76 3.41667
r299 52 75 0.884785
r300 51 76 0.282372
r301 50 75 0.0658456
r302 49 50 1.16667
r303 48 74 0.488662
r304 47 49 0.279364
r305 47 48 3.33333
r306 46 66 0.0293644
r307 45 74 0.488662
r308 45 46 1.66667
r309 43 64 0.0293644
r310 43 63 0.75
r311 41 63 0.282372
r312 39 71 0.298409
r313 39 40 13.0833
r314 38 40 0.279364
r315 37 62 0.127482
r316 37 38 1.91667
r317 35 62 0.889019
r318 35 61 14.8333
r319 24 92 0.0661111
r320 24 93 0.0194444
r321 22 41 1.25
r322 15 87 0.0661111
r323 15 88 0.0194444
r324 10 115 0.0723016
r325 8 51 0.625
r326 8 52 0.375
r327 1 99 0.0723016
.ends

.subckt PM_DFFSRD1%RNb 1 2 5 8 12 16 24 27 28 29 30 33 35 36 37 39 42 44 46 48
+ 49 52 55 56 57 59 60 61 63 64 65 67 68 69 71 73 74 77 83 87 88 91 94 98 101
+ 102 103 104 109 114 115 117 119 124 126 132 137 141
c410 141 0 0.00820371f
c411 137 0 0.0245927f
c412 132 0 4.46953e-20
c413 126 0 0.0139949f
c414 124 0 0.0975419f
c415 119 0 0.119011f
c416 117 0 0.14322f
c417 115 0 0.0126312f
c418 114 0 0.104895f
c419 109 0 0.103209f
c420 104 0 0.0316875f
c421 103 0 0.0248792f
c422 102 0 0.0137535f
c423 101 0 0.515164f
c424 98 0 0.0407964f
c425 94 0 0.0567206f
c426 91 0 0.0680613f
c427 88 0 0.0193294f
c428 87 0 0.0579859f
c429 83 0 0.0338831f
c430 77 0 0.0537224f
c431 74 0 0.145834f
c432 73 0 0.0216632f
c433 71 0 0.19711f
c434 69 0 0.0257801f
c435 68 0 0.242226f
c436 67 0 0.0354805f
c437 65 0 0.0281649f
c438 64 0 0.125282f
c439 63 0 0.135015f
c440 61 0 0.0127876f
c441 60 0 0.187989f
c442 59 0 0.112444f
c443 57 0 0.00695457f
c444 56 0 0.141819f
c445 55 0 0.0350656f
c446 52 0 0.0246795f
c447 49 0 0.218969f
c448 48 0 0.0247821f
c449 46 0 0.0560585f
c450 44 0 0.0418996f
c451 42 0 0.161009f
c452 39 0 0.71041f
c453 37 0 0.0396952f
c454 36 0 0.0693589f
c455 35 0 8.73864e-19
c456 33 0 0.0596154f
c457 30 0 0.21163f
c458 29 0 0.00626269f
c459 28 0 0.109287f
c460 27 0 0.127981f
c461 24 0 0.418046f
c462 5 0 0.335988f
r463 137 139 0.07
r464 120 137 0.00411102
r465 119 141 0.0417772
r466 119 120 1.65667
r467 118 132 0.0417772
r468 117 139 0.00411102
r469 117 118 0.863333
r470 116 126 0.0161215
r471 115 130 0.0417772
r472 115 116 0.105
r473 114 124 0.0417772
r474 113 126 0.0225096
r475 113 114 0.513333
r476 109 126 0.0161215
r477 101 102 0.407372
r478 98 141 0.0233333
r479 98 100 0.488662
r480 94 132 0.0233333
r481 94 96 0.488662
r482 89 91 1
r483 83 85 0.666667
r484 77 130 0.0233333
r485 77 79 0.166667
r486 74 104 0.532372
r487 73 104 0.583333
r488 71 73 0.279364
r489 70 71 5.25
r490 68 70 0.279364
r491 68 69 3.91667
r492 66 69 0.279364
r493 66 67 0.75
r494 64 67 0.279364
r495 64 65 1.83333
r496 62 65 0.279364
r497 62 63 3.5
r498 60 63 0.279364
r499 60 61 5.66667
r500 59 61 0.279364
r501 58 59 3
r502 56 58 0.279364
r503 56 57 4
r504 55 57 0.279364
r505 54 55 0.666667
r506 52 54 0.279364
r507 52 103 1.66667
r508 49 103 0.282372
r509 48 101 11.6667
r510 46 48 0.279364
r511 46 100 1.5
r512 44 91 0.0293644
r513 44 96 1.25
r514 41 89 0.0293644
r515 41 42 4.25
r516 39 42 0.279364
r517 39 88 12.75
r518 37 87 0.532372
r519 36 88 0.282372
r520 35 87 1.25
r521 33 35 0.279364
r522 32 33 2.5
r523 31 83 0.0293644
r524 30 32 0.279364
r525 30 31 5.5
r526 28 85 0.0293644
r527 28 29 5.25
r528 27 29 0.279364
r529 26 82 0.0987454
r530 26 27 2.75
r531 25 79 0.298409
r532 24 25 9.08333
r533 16 49 1.25
r534 16 102 1.5
r535 12 74 0.375
r536 8 36 0.625
r537 8 37 0.375
r538 5 82 1.69173
r539 5 24 2.16225
r540 2 109 0.0777778
r541 1 124 0.0272222
.ends

.subckt PM_DFFSRD1%RN 3 6 9 11 13 15 17 18 20 24 27 29
c66 29 0 0.152101f
c67 27 0 0.00809647f
c68 24 0 0.0384224f
c69 20 0 0.0541742f
c70 18 0 0.0222103f
c71 17 0 0.0224105f
c72 15 0 0.0789152f
c73 13 0 0.119493f
c74 11 0 0.120478f
c75 9 0 0.21188f
r76 29 35 0.128333
r77 29 40 0.641667
r78 27 40 0.0684127
r79 24 27 0.166667
r80 20 35 0.0684127
r81 20 22 0.166667
r82 15 22 0.298409
r83 15 18 1.5
r84 13 24 0.298409
r85 13 17 2.5
r86 11 18 0.282372
r87 9 17 0.282372
r88 6 9 1.25
r89 3 11 0.625
.ends

.subckt PM_DFFSRD1%SN 3 6 10 14 23 25 27 29 32 33 36 37 38 41 42 44 45 46 48 49
+ 50 52 54 55 60 61 63 65 68 71 73 74 79 83 84 86 88 89 92 93 95 98 100 103 106
+ 107 109 112 119 121 122 125 126 127 133 134 135 137 139 154 162 167 170 174
+ 178
c435 178 0 0.0475935f
c436 174 0 0.0356831f
c437 170 0 0.0176993f
c438 167 0 2.22927e-21
c439 162 0 0.303953f
c440 154 0 0.0767809f
c441 139 0 0.0230129f
c442 137 0 0.119827f
c443 135 0 0.00269882f
c444 134 0 0.0654749f
c445 133 0 0.020844f
c446 127 0 0.0045404f
c447 126 0 0.155222f
c448 125 0 0.0265629f
c449 122 0 0.146785f
c450 121 0 0.0164321f
c451 119 0 0.148046f
c452 112 0 0.153728f
c453 109 0 0.0168083f
c454 107 0 0.0295741f
c455 106 0 0.0492932f
c456 100 0 0.0481789f
c457 95 0 0.0540879f
c458 93 0 0.159199f
c459 92 0 0.057195f
c460 89 0 0.118398f
c461 88 0 0.0564944f
c462 86 0 0.0018119f
c463 84 0 0.0651174f
c464 83 0 8.36262e-19
c465 79 0 0.0493938f
c466 74 0 0.0596953f
c467 73 0 0.0228651f
c468 71 0 0.0109125f
c469 68 0 0.00250879f
c470 65 0 0.112751f
c471 63 0 0.189121f
c472 61 0 0.241237f
c473 60 0 8.89644e-19
c474 55 0 0.141279f
c475 54 0 0.0267355f
c476 52 0 0.0587685f
c477 50 0 0.0237404f
c478 49 0 0.125802f
c479 48 0 0.116484f
c480 46 0 0.0280993f
c481 45 0 0.280754f
c482 44 0 0.0382001f
c483 42 0 0.0272155f
c484 41 0 0.0738664f
c485 38 0 0.0714253f
c486 37 0 0.148145f
c487 36 0 0.0289345f
c488 33 0 0.193416f
c489 32 0 0.109882f
c490 29 0 0.100251f
c491 27 0 0.0378918f
c492 25 0 0.477312f
c493 23 0 0.0940632f
c494 22 0 0.070025f
r495 176 178 0.14
r496 151 154 0.49
r497 139 178 0.00411102
r498 139 183 0.151667
r499 136 137 1.00333
r500 135 136 1.00333
r501 134 187 0.0417772
r502 134 137 1.00333
r503 133 135 0.039111
r504 133 175 0.07
r505 130 176 0.00411102
r506 130 174 0.268333
r507 128 170 0.0933333
r508 126 128 0.039111
r509 126 127 0.571667
r510 124 127 0.039111
r511 124 125 0.128333
r512 122 125 0.039111
r513 122 167 0.501667
r514 121 162 1.645
r515 119 121 0.039111
r516 119 159 0.665
r517 112 142 0.443333
r518 112 147 0.326667
r519 111 187 0.0233333
r520 106 183 0.0684127
r521 106 107 0.488662
r522 103 175 0.0684127
r523 103 174 0.0684127
r524 100 103 0.166667
r525 98 170 0.0684127
r526 95 98 0.166667
r527 92 167 0.0684127
r528 92 93 0.488662
r529 88 162 0.0684127
r530 88 89 0.488662
r531 86 159 0.0684127
r532 84 86 0.357995
r533 83 151 0.0684127
r534 79 154 0.0684127
r535 79 81 0.488662
r536 74 76 0.333333
r537 71 142 0.0684127
r538 68 147 0.0684127
r539 65 68 0.333333
r540 63 111 0.760609
r541 61 109 0.282372
r542 60 109 1.16667
r543 57 60 0.279364
r544 57 107 0.5
r545 56 95 0.298409
r546 55 100 0.298409
r547 55 56 3.83333
r548 54 93 2.83333
r549 52 54 0.279364
r550 51 52 1.16667
r551 49 51 0.279364
r552 49 50 2.33333
r553 48 50 0.279364
r554 47 48 3.25
r555 45 47 0.279364
r556 45 46 4.33333
r557 43 46 0.279364
r558 43 44 1.41667
r559 41 44 0.279364
r560 41 42 0.916667
r561 39 42 0.279364
r562 39 89 3.33333
r563 38 83 0.4
r564 37 84 0.280087
r565 37 38 5.83333
r566 36 81 1
r567 31 32 5.61
r568 30 76 0.0293644
r569 30 31 5.61
r570 29 36 0.279364
r571 29 32 5.61333
r572 27 74 0.0293644
r573 27 73 0.75
r574 26 65 0.298409
r575 25 33 1.16995
r576 25 26 9.91667
r577 22 73 0.282372
r578 14 61 1.25
r579 10 33 1
r580 6 63 0.375
r581 3 23 0.166203
r582 3 71 0.594406
r583 3 22 0.5
r584 3 23 0.5
.ends

.subckt PM_DFFSRD1%mout 1 2 3 4 5 12 14 21 31 32 34 36 45 46 57 59 60 61 66 67
+ 69 72 73 74 76 77 79 82 85 86 92 94 95 96 97 98 103 108 120 121 124
c268 124 0 0.0421877f
c269 121 0 0.0276857f
c270 120 0 0.0444965f
c271 108 0 0.00811334f
c272 103 0 0.00809665f
c273 98 0 0.00122238f
c274 97 0 0.0382069f
c275 96 0 0.0337924f
c276 95 0 0.0267161f
c277 94 0 0.137731f
c278 92 0 0.0849968f
c279 86 0 0.0543277f
c280 85 0 0.0298746f
c281 82 0 0.0605146f
c282 79 0 0.0441202f
c283 77 0 0.0841489f
c284 76 0 0.0580757f
c285 74 0 0.0197423f
c286 73 0 0.110689f
c287 72 0 0.0831433f
c288 69 0 0.0456741f
c289 67 0 0.0265921f
c290 66 0 0.0443653f
c291 61 0 0.0390506f
c292 60 0 0.0457462f
c293 59 0 0.00810973f
c294 57 0 0.0336768f
c295 46 0 0.104737f
c296 45 0 0.0482405f
c297 36 0 0.193499f
c298 34 0 0.381441f
c299 32 0 0.0792679f
c300 31 0 0.250957f
c301 5 0 0.0790488f
c302 2 0 0.0879993f
r303 121 124 0.245
r304 116 117 0.0450794
r305 95 96 0.233333
r306 85 121 0.0684127
r307 85 86 0.0505556
r308 84 116 0.0417772
r309 84 120 0.21
r310 82 117 0.35
r311 80 108 0.0417772
r312 79 82 0.039111
r313 79 80 0.186667
r314 78 98 0.0296412
r315 77 103 0.0417772
r316 77 78 0.933333
r317 76 99 0.0417772
r318 75 98 0.00770322
r319 75 76 0.396667
r320 73 98 0.0296412
r321 73 74 1.06167
r322 71 74 0.039111
r323 71 72 0.443333
r324 69 72 0.039111
r325 69 97 0.151667
r326 67 96 0.0532251
r327 66 97 0.0684127
r328 61 94 0.0684127
r329 60 95 0.0684127
r330 59 94 0.7
r331 57 92 0.0417772
r332 56 59 0.039111
r333 56 57 0.198333
r334 45 116 0.0233333
r335 45 46 0.488662
r336 43 108 0.0233333
r337 41 103 0.0233333
r338 38 46 3
r339 36 43 0.602895
r340 34 38 0.279364
r341 34 35 10.25
r342 32 41 0.602895
r343 31 35 0.921376
r344 21 31 1.25
r345 21 32 1.25
r346 14 66 0.0661111
r347 14 67 0.0194444
r348 12 36 0.625
r349 5 99 0.0272222
r350 4 86 0.0155556
r351 4 120 0.0878572
r352 3 60 0.0661111
r353 3 61 0.0194444
r354 2 124 0.0723016
r355 1 92 0.0272222
.ends

.subckt PM_DFFSRD1%n35 1 4 5 8 9 14 25 29 30 32 34 39 40 42 44 45 46 47 49 50 53
+ 60 66 69 72 73 75 77 78 79 81 84 86 87 90 91 98 107 108 110
c228 110 0 0.05576f
c229 108 0 0.0342934f
c230 107 0 0.0748823f
c231 98 0 0.0335125f
c232 91 0 0.0600998f
c233 90 0 0.0505969f
c234 87 0 0.0295109f
c235 86 0 0.0168646f
c236 84 0 0.0210666f
c237 81 0 0.0749827f
c238 79 0 0.0321856f
c239 78 0 0.0448656f
c240 77 0 0.00501654f
c241 75 0 0.043576f
c242 73 0 0.0129072f
c243 72 0 0.0146362f
c244 69 0 0.0180194f
c245 66 0 0.0954797f
c246 60 0 0.0809919f
c247 53 0 0.0409893f
c248 50 0 0.0235735f
c249 49 0 0.0495208f
c250 47 0 0.0220328f
c251 46 0 0.0737069f
c252 45 0 0.107805f
c253 44 0 0.00547879f
c254 42 0 0.00809647f
c255 40 0 0.0176565f
c256 39 0 0.0265403f
c257 34 0 0.228995f
c258 32 0 0.0263509f
c259 30 0 0.0734637f
c260 29 0 0.175818f
c261 25 0 0.12273f
c262 9 0 0.0875654f
r263 87 90 0.245
r264 86 110 0.256667
r265 83 86 0.039111
r266 83 84 0.116667
r267 81 84 0.039111
r268 81 108 0.35
r269 79 107 0.0600596
r270 78 108 0.0684127
r271 77 107 0.49
r272 75 103 0.28
r273 72 75 0.039111
r274 72 73 0.105
r275 70 73 0.039111
r276 70 98 0.28
r277 69 95 0.0933333
r278 66 69 0.039111
r279 66 91 0.478333
r280 60 87 0.0684127
r281 53 77 0.0684127
r282 53 55 0.488662
r283 49 103 0.0684127
r284 49 50 0.488662
r285 44 98 0.0684127
r286 44 46 0.494913
r287 44 45 0.494913
r288 42 95 0.0684127
r289 40 45 4.08333
r290 39 55 0.5
r291 36 50 0.5
r292 34 39 0.279364
r293 34 46 12.6667
r294 32 36 0.279364
r295 32 47 1.33333
r296 30 42 0.602895
r297 29 47 0.282372
r298 25 40 0.282372
r299 14 78 0.0661111
r300 14 79 0.0194444
r301 9 110 0.0723016
r302 8 29 1.25
r303 8 30 1.25
r304 5 60 0.0661111
r305 4 25 0.625
r306 1 91 0.0723016
r307 1 90 0.0723016
.ends

.subckt PM_DFFSRD1%qbint 1 4 7 8 11 14 17 21 33 34 36 37 38 40 42 44 47 49 50 51
+ 52 53 56 57 58 59 60 62 63 64 65 66 68 71 72 75 76 87 88 89 93 94 95 97 98 99
+ 101 102 103 105 106 107 109
c258 109 0 0.0157675f
c259 107 0 0.0145347f
c260 106 0 0.00811279f
c261 105 0 0.0315193f
c262 103 0 0.0118147f
c263 102 0 0.0927907f
c264 101 0 0.0996142f
c265 99 0 0.00269882f
c266 98 0 0.0971346f
c267 97 0 0.0187575f
c268 95 0 0.053687f
c269 94 0 0.0322288f
c270 93 0 0.134123f
c271 89 0 0.0642475f
c272 88 0 0.125088f
c273 87 0 0.0635271f
c274 81 0 0.0103852f
c275 76 0 0.0611052f
c276 75 0 0.0239304f
c277 72 0 0.0222337f
c278 71 0 0.0475232f
c279 68 0 0.122274f
c280 66 0 0.197962f
c281 65 0 0.0161734f
c282 64 0 0.0426931f
c283 63 0 0.0161352f
c284 62 0 0.0426931f
c285 60 0 0.0177313f
c286 59 0 0.0720574f
c287 58 0 0.023991f
c288 57 0 0.0353339f
c289 56 0 0.143518f
c290 53 0 0.0717872f
c291 52 0 0.138785f
c292 51 0 0.0434328f
c293 50 0 0.0831706f
c294 49 0 0.218525f
c295 47 0 0.0291484f
c296 44 0 0.107024f
c297 42 0 0.42401f
c298 40 0 0.0824534f
c299 38 0 0.0549285f
c300 37 0 0.156275f
c301 36 0 0.0140169f
c302 34 0 0.0114831f
c303 33 0 0.0185813f
r304 109 116 0.07
r305 106 109 0.039111
r306 106 107 0.21
r307 104 107 0.039111
r308 104 105 0.21
r309 102 105 0.039111
r310 102 103 0.746667
r311 101 103 0.039111
r312 100 101 0.77
r313 98 100 0.039111
r314 98 99 0.63
r315 96 99 0.039111
r316 96 97 0.116667
r317 95 112 0.0995239
r318 94 97 0.039111
r319 94 95 0.0933333
r320 92 112 0.0417772
r321 92 93 0.793333
r322 89 112 0.0116667
r323 87 93 0.039111
r324 87 88 0.35
r325 76 78 0.833333
r326 71 116 0.0684127
r327 71 72 0.443971
r328 64 68 0.266186
r329 64 65 1
r330 62 66 0.266186
r331 62 63 1
r332 59 65 0.266186
r333 57 60 0.266186
r334 57 58 0.833333
r335 56 58 0.279364
r336 55 56 2.41667
r337 53 82 0.641357
r338 52 63 0.266186
r339 51 80 0.231997
r340 50 55 0.279364
r341 50 51 1.41667
r342 49 80 0.0536562
r343 48 81 0.211723
r344 48 49 3.66667
r345 47 81 0.211723
r346 46 82 0.0536562
r347 46 47 0.5
r348 44 80 0.641357
r349 43 76 0.0293644
r350 42 81 0.055023
r351 42 43 8.91667
r352 40 78 0.0293644
r353 40 75 1.5
r354 38 74 0.821614
r355 37 75 0.282372
r356 36 74 0.0672342
r357 35 36 0.833333
r358 33 35 0.279364
r359 33 34 2.5
r360 31 34 0.28152
r361 31 72 0.857143
r362 21 37 1.25
r363 21 38 1
r364 17 44 0.625
r365 14 66 1.25
r366 11 52 1.25
r367 11 53 1.25
r368 8 89 0.0233333
r369 7 68 0.625
r370 4 59 0.625
r371 4 60 0.625
r372 1 88 0.116114
.ends

.subckt PM_DFFSRD1%qint 1 4 5 8 14 16 17 18 20 21 23 26 33 37 40 44
c62 46 0 0.0126927f
c63 44 0 0.0935506f
c64 40 0 0.0322098f
c65 37 0 0.0455795f
c66 33 0 0.146458f
c67 26 0 0.0299205f
c68 23 0 0.213806f
c69 21 0 0.244396f
c70 20 0 0.22802f
c71 18 0 0.0634475f
c72 17 0 0.0655523f
c73 16 0 0.0251175f
c74 15 0 0.041761f
c75 14 0 0.162336f
c76 1 0 0.100322f
r77 41 46 0.00770322
r78 40 41 0.151667
r79 38 46 0.0296412
r80 38 44 0.303333
r81 37 46 0.0296412
r82 36 37 0.163333
r83 33 36 0.0534439
r84 26 40 0.0684127
r85 26 27 0.363636
r86 20 23 0.831548
r87 19 20 4.08333
r88 18 27 0.304173
r89 17 19 0.279364
r90 17 18 1
r91 15 21 0.266186
r92 15 16 1.16667
r93 14 27 0.276099
r94 13 16 0.279364
r95 13 14 2.58333
r96 8 21 1.25
r97 5 33 0.0194444
r98 4 23 0.625
r99 1 44 0.0692878
.ends

.subckt PM_DFFSRD1%CK 3 6 9 15 16 18
c19 18 0 0.215201f
c20 16 0 0.275713f
c21 15 0 0.792307f
r22 16 22 0.137684
r23 15 23 0.0601979
r24 14 15 7.66667
r25 9 22 0.661765
r26 9 14 0.441176
r27 6 22 0.157448
r28 6 16 1.125
r29 3 18 0.137684
r30 3 23 1.10294
r31 3 18 0.5
.ends

.subckt PM_DFFSRD1%VSS 1 2 3 4 5 6 7 8 13 18 23 53 64 67 70 71 75 76
c152 76 0 0.994922f
c153 75 0 0.973032f
c154 71 0 0.999505f
c155 70 0 1.70695f
c156 67 0 2.10515f
c157 64 0 1.39559f
c158 23 0 1.04563f
c159 8 0 1.00092f
c160 7 0 1.7903f
c161 5 0 1.00405f
c162 4 0 1.0424f
c163 3 0 0.797025f
c164 2 0 1.15175f
r165 75 76 0.256667
r166 70 71 0.28
r167 66 67 0.202207
r168 63 64 0.194413
r169 23 75 0.256667
r170 18 70 0.28
r171 18 67 0.202253
r172 13 66 0.202207
r173 13 64 0.194507
r174 7 53 0.0746667
r175 6 53 0.112
r176 5 6 0.14
r177 5 76 0.256667
r178 4 23 0.28
r179 4 71 0.28
r180 3 63 0.194413
r181 3 8 0.21
r182 2 8 0.256667
r183 1 2 0.163333
.ends

.subckt PM_DFFSRD1%VDD 1 2 3 4 5 6 7 8 9 14 19 24 29 63 76 79 83 84
c142 84 0 1.14243f
c143 83 0 1.15426f
c144 79 0 2.21273f
c145 76 0 1.54227f
c146 24 0 1.08236f
c147 9 0 1.68973f
c148 8 0 1.25608f
c149 7 0 1.44197f
c150 5 0 2.42123f
c151 4 0 0.794481f
c152 3 0 1.43464f
r153 83 84 0.31108
r154 78 79 0.186667
r155 75 76 0.22554
r156 24 29 0.116667
r157 24 84 0.311173
r158 19 79 0.186667
r159 14 78 0.186667
r160 14 76 0.225587
r161 8 63 0.0933333
r162 7 63 0.0933333
r163 6 7 0.0933333
r164 6 29 0.163333
r165 5 83 0.31108
r166 5 19 0.443333
r167 4 75 0.22554
r168 3 4 0.21
r169 3 9 0.373333
r170 2 9 0.163333
r171 1 2 0.14
.ends

.subckt PM_DFFSRD1%net158 1 2 13 18 19 21
c28 21 0 0.0464737f
c29 19 0 0.123398f
c30 18 0 0.0357714f
c31 13 0 0.1053f
r32 19 21 0.0636395
r33 18 21 0.233333
r34 13 18 0.0517064
r35 2 19 0.0194444
r36 1 13 0.0661111
.ends

.subckt PM_DFFSRD1%n42 1 8 15 18 19 21 23 27
c46 27 0 0.19249f
c47 23 0 0.0196793f
c48 21 0 0.0261283f
c49 19 0 0.0338855f
c50 18 0 0.0601882f
c51 15 0 0.083791f
c52 8 0 0.166263f
r53 23 27 0.933333
r54 20 23 0.039111
r55 20 21 0.116667
r56 18 21 0.039111
r57 18 19 0.186667
r58 15 19 0.0517064
r59 8 27 0.0878572
r60 1 15 0.0661111
.ends

.subckt PM_DFFSRD1%n40 1 6 15 19 20 21 23 24 25 27 28
c84 28 0 0.139011f
c85 27 0 0.0206805f
c86 25 0 0.0208213f
c87 24 0 0.0886556f
c88 23 0 0.0456347f
c89 21 0 0.0037132f
c90 20 0 0.023921f
c91 19 0 0.0247802f
c92 15 0 0.140278f
r93 28 31 0.0800468
r94 27 31 0.0250789
r95 26 27 0.21
r96 24 26 0.039111
r97 24 25 0.63
r98 22 25 0.039111
r99 22 23 0.186667
r100 20 23 0.039111
r101 20 21 0.21
r102 18 21 0.039111
r103 18 19 0.116667
r104 15 19 0.0800468
r105 6 28 0.0194444
r106 1 15 0.0661111
.ends

.subckt PM_DFFSRD1%noxref_18 1 8 15 18 20 23 25
c44 25 0 0.0219688f
c45 23 0 0.0792724f
c46 20 0 0.00907824f
c47 18 0 0.0598054f
c48 15 0 0.0635651f
c49 8 0 0.0898035f
r50 20 25 0.0816667
r51 17 20 0.039111
r52 17 18 0.221667
r53 15 18 0.039111
r54 15 23 0.198333
r55 8 25 0.0723016
r56 1 23 0.0723016
.ends

.subckt PM_DFFSRD1%Q 1 2 9 10
c35 10 0 0.166217f
c36 9 0 0.171909f
c37 1 0 0.1063f
r38 10 14 0.0534439
r39 9 19 0.256667
r40 9 14 0.28
r41 2 10 0.0777778
r42 1 19 0.0692878
.ends

.subckt PM_DFFSRD1%QN 1 2 9
c19 9 0 0.353324f
c20 2 0 0.268067f
c21 1 0 0.191519f
r22 9 11 0.256667
r23 9 10 0.28
r24 2 10 0.0233333
r25 1 11 0.0692878
.ends

