* File: DFFSRD16.cdl.pex
* Created: Sat Aug 17 14:09:06 2024
* Program "Calibre xRC"
* Version "v2023.1_18.8"
* Nominal Temperature: 25C
* Circuit Temperature: 25C
* 
.subckt PM_DFFSRD16%CKb 1 4 7 10 11 14 17 20 38 40 44 45 47 49 52 53 54 56 58 59
+ 60 64 67 68 69 72 73 76 79 82 83 84 86 87 88 91 93 95 97 98 100 101 103 108
+ 110 111 112 113 115 121 122 125 126 128 131 137 140 143 151 153 154 158 160
+ 163 165 167 169 170 171 173 174 175 177 190 201
c464 201 0 0.310321f
c465 190 0 3.86234e-20
c466 178 0 0.00640079f
c467 177 0 0.0379425f
c468 174 0 0.00373657f
c469 173 0 0.0448366f
c470 171 0 0.0127945f
c471 170 0 0.176941f
c472 169 0 0.0166882f
c473 167 0 0.0168139f
c474 165 0 0.0907383f
c475 163 0 0.0678197f
c476 160 0 0.0630321f
c477 158 0 0.091131f
c478 154 0 0.0250009f
c479 153 0 0.0561693f
c480 151 0 0.046689f
c481 143 0 0.0842451f
c482 140 0 0.00269882f
c483 137 0 0.310136f
c484 131 0 0.0147566f
c485 128 0 0.0458703f
c486 126 0 0.0270471f
c487 125 0 0.0500791f
c488 122 0 0.0274642f
c489 121 0 0.0610624f
c490 115 0 0.0555052f
c491 113 0 0.00793355f
c492 112 0 0.115402f
c493 111 0 0.0219785f
c494 110 0 0.0341825f
c495 108 0 0.0233771f
c496 106 0 0.0304294f
c497 103 0 0.00803671f
c498 101 0 0.154062f
c499 100 0 0.049748f
c500 98 0 0.297544f
c501 97 0 0.0697135f
c502 95 0 0.478203f
c503 93 0 0.00919368f
c504 91 0 0.0503114f
c505 88 0 0.0314902f
c506 87 0 0.16346f
c507 86 0 0.164139f
c508 84 0 0.0243478f
c509 83 0 0.336123f
c510 82 0 0.0488887f
c511 79 0 0.111246f
c512 76 0 0.228798f
c513 73 0 0.0243746f
c514 72 0 0.125704f
c515 69 0 0.0265632f
c516 68 0 0.0968229f
c517 67 0 0.0287958f
c518 64 0 0.754395f
c519 60 0 0.0432073f
c520 59 0 0.182191f
c521 58 0 0.0221461f
c522 56 0 0.0220804f
c523 54 0 0.0224334f
c524 53 0 0.214126f
c525 52 0 0.0371861f
c526 49 0 0.161952f
c527 47 0 0.110812f
c528 45 0 0.186362f
c529 44 0 0.0243226f
c530 40 0 0.0257536f
c531 38 0 0.19446f
c532 11 0 0.0915535f
c533 1 0 0.0794452f
r534 177 210 0.21
r535 174 177 0.039111
r536 174 175 0.35
r537 172 175 0.039111
r538 172 173 0.21
r539 170 173 0.039111
r540 170 171 1.02667
r541 169 171 0.039111
r542 169 206 0.07
r543 167 201 1.69167
r544 165 167 0.039111
r545 165 198 0.49
r546 163 194 0.443333
r547 160 163 0.039111
r548 160 190 1.10833
r549 159 178 0.00770322
r550 158 159 0.396667
r551 153 179 0.0417772
r552 152 178 0.0296412
r553 152 153 0.256667
r554 151 178 0.0296412
r555 150 154 0.0534439
r556 150 151 0.21
r557 144 145 0.785714
r558 143 210 0.0684127
r559 140 206 0.0684127
r560 137 140 0.166667
r561 131 201 0.0684127
r562 128 131 0.138333
r563 125 198 0.0684127
r564 125 126 0.488662
r565 121 194 0.0684127
r566 121 122 0.488662
r567 118 190 0.0684127
r568 115 118 0.166667
r569 112 113 0.332222
r570 111 112 2.16667
r571 103 158 0.0684127
r572 103 104 0.488662
r573 100 103 0.166667
r574 100 101 0.321996
r575 98 145 0.134114
r576 97 144 0.0672342
r577 96 143 0.681818
r578 96 97 1.16667
r579 94 95 7.16667
r580 93 94 7.16667
r581 92 137 0.298409
r582 92 95 7.16667
r583 91 93 0.279364
r584 90 91 1.33333
r585 87 90 0.286844
r586 85 88 0.286844
r587 85 86 4.33333
r588 83 86 0.279364
r589 83 84 6.41667
r590 82 84 0.279364
r591 81 82 1.5
r592 80 135 0.0293644
r593 79 81 0.279364
r594 79 80 1.75
r595 77 128 0.225711
r596 76 135 0.75
r597 74 126 1
r598 72 74 0.279364
r599 72 73 11
r600 70 73 0.279364
r601 70 122 1
r602 68 115 0.298409
r603 68 69 1.66667
r604 67 69 0.279364
r605 66 114 0.127482
r606 66 67 0.916667
r607 64 114 0.889019
r608 64 113 14.8333
r609 59 111 0.282372
r610 58 110 0.583333
r611 56 58 0.279364
r612 55 56 0.5
r613 53 55 0.279364
r614 53 54 3.33333
r615 51 54 0.279364
r616 51 52 1.16667
r617 46 100 0.298409
r618 45 52 0.279364
r619 45 46 4.91667
r620 44 108 0.666667
r621 41 44 0.279364
r622 41 101 3
r623 40 106 0.833333
r624 38 40 0.279364
r625 38 104 3.16667
r626 20 145 0.164419
r627 20 98 1.125
r628 17 60 0.125
r629 17 110 0.407372
r630 17 59 1.125
r631 17 60 1.125
r632 14 49 0.125
r633 14 108 0.407372
r634 14 49 1.125
r635 11 154 0.0311111
r636 10 87 0.9375
r637 10 88 0.9375
r638 7 76 0.875
r639 7 77 1.1875
r640 4 47 0.125
r641 4 106 0.407372
r642 4 47 0.5
r643 1 179 0.0272222
.ends

.subckt PM_DFFSRD16%CKbb 1 4 7 8 11 14 23 24 25 26 28 30 32 34 40 41 46 47 48 49
+ 52 54 55 56 58 60 61 62 63 66 67 68 70 72 73 78 79 83 88 90 94 98 99 100 102
+ 105 112 114 118 124 127 131 134 135 136 138 140 141 143 147 149 150 165
c438 165 0 0.0242533f
c439 150 0 0.0154406f
c440 149 0 0.00952282f
c441 147 0 0.0270911f
c442 143 0 0.171583f
c443 141 0 0.0525268f
c444 140 0 0.146558f
c445 138 0 0.178368f
c446 136 0 0.0088097f
c447 135 0 0.115297f
c448 134 0 0.0247458f
c449 131 0 0.0586601f
c450 127 0 0.028931f
c451 124 0 0.0777203f
c452 118 0 0.0893135f
c453 114 0 0.0171f
c454 112 0 0.0337072f
c455 106 0 0.0233689f
c456 105 0 0.0500421f
c457 102 0 0.161262f
c458 100 0 0.0574506f
c459 99 0 0.0325205f
c460 98 0 0.199401f
c461 94 0 0.0517868f
c462 90 0 0.0505397f
c463 88 0 0.00418679f
c464 83 0 0.0722207f
c465 79 0 0.0560535f
c466 78 0 0.0248642f
c467 73 0 0.161964f
c468 72 0 0.0224009f
c469 70 0 0.0897187f
c470 68 0 0.0457436f
c471 67 0 0.118798f
c472 66 0 0.0921315f
c473 63 0 0.0664368f
c474 62 0 0.00545403f
c475 61 0 0.163107f
c476 60 0 0.0174534f
c477 58 0 0.677703f
c478 56 0 0.0247821f
c479 55 0 0.264933f
c480 54 0 0.0697332f
c481 52 0 0.0689059f
c482 49 0 0.232021f
c483 48 0 8.66596e-19
c484 47 0 0.114302f
c485 46 0 0.0250788f
c486 41 0 0.0238324f
c487 40 0 0.206452f
c488 34 0 0.12515f
c489 32 0 0.578313f
c490 30 0 0.407426f
c491 28 0 0.0657768f
c492 26 0 0.0220556f
c493 25 0 0.10186f
c494 24 0 0.0500573f
c495 23 0 0.051596f
c496 8 0 0.10328f
c497 1 0 0.107507f
r498 165 167 0.07
r499 144 165 0.00411102
r500 143 172 0.0417772
r501 143 144 1.02667
r502 141 167 0.00411102
r503 141 142 0.35
r504 140 162 0.7
r505 137 138 0.851667
r506 136 137 0.851667
r507 135 140 0.039111
r508 135 138 0.851667
r509 134 136 0.039111
r510 134 158 0.0933333
r511 132 149 0.00770322
r512 131 150 0.0417772
r513 131 132 0.245
r514 125 149 0.0296412
r515 125 147 0.128333
r516 124 149 0.0296412
r517 123 127 0.0534439
r518 123 124 0.338333
r519 114 116 0.5
r520 110 112 1
r521 108 109 0.785714
r522 105 172 0.0233333
r523 105 107 0.488662
r524 105 106 0.488662
r525 102 142 0.056
r526 102 103 0.490196
r527 99 100 1.08333
r528 98 99 0.375
r529 94 96 0.5
r530 90 162 0.0684127
r531 90 92 0.166667
r532 88 158 0.0684127
r533 83 85 0.916667
r534 79 81 0.666667
r535 76 150 0.0233333
r536 73 118 0.282372
r537 72 118 2.16667
r538 69 72 0.279364
r539 69 70 2.66667
r540 67 70 0.279364
r541 67 68 7.66667
r542 66 68 0.279364
r543 65 66 3
r544 64 114 0.0293644
r545 63 65 0.279364
r546 63 64 3.33333
r547 61 116 0.0293644
r548 61 62 5.5
r549 60 62 0.279364
r550 59 60 1
r551 57 58 7.5
r552 56 57 7.5
r553 55 59 0.279364
r554 55 58 7.5
r555 54 56 0.279364
r556 53 112 0.0293644
r557 53 54 1.5
r558 52 110 0.0293644
r559 51 52 1.5
r560 49 109 0.134114
r561 47 51 0.279364
r562 47 48 8
r563 46 108 0.0672342
r564 46 107 0.5
r565 43 48 0.279364
r566 43 106 0.5
r567 41 100 0.282372
r568 40 103 0.185882
r569 37 96 0.0293644
r570 37 98 4.75
r571 35 92 0.298409
r572 34 94 0.0293644
r573 34 35 2.66667
r574 33 83 0.0293644
r575 32 88 0.535714
r576 32 33 11.1667
r577 31 81 0.0293644
r578 30 85 0.0293644
r579 30 31 8.08333
r580 28 79 0.0293644
r581 28 78 1.08333
r582 25 78 0.282372
r583 24 76 0.488662
r584 23 26 0.266186
r585 23 24 0.916667
r586 14 109 0.164419
r587 14 49 1.125
r588 11 40 1.25
r589 11 41 1.25
r590 8 127 0.0311111
r591 7 73 0.625
r592 4 25 0.625
r593 4 26 0.625
r594 1 147 0.0692878
.ends

.subckt PM_DFFSRD16%D 3 6 9 11 13 15 17 19 23 24 27 29 30 34
c83 34 0 0.212288f
c84 30 0 0.190589f
c85 27 0 0.00843617f
c86 24 0 0.046617f
c87 23 0 0.0222833f
c88 19 0 0.0552634f
c89 17 0 0.0205888f
c90 15 0 0.0611319f
c91 13 0 0.209649f
c92 11 0 0.0981615f
c93 9 0 0.123828f
r94 34 43 0.91
r95 31 38 0.0417772
r96 30 34 0.039111
r97 29 30 0.0583333
r98 29 31 0.583333
r99 27 43 0.0684127
r100 24 27 0.166667
r101 19 38 0.0233333
r102 19 21 0.166667
r103 15 24 0.298409
r104 15 23 1.16667
r105 13 23 0.282372
r106 11 21 0.298409
r107 11 17 1.91667
r108 9 17 0.282372
r109 6 13 1.25
r110 3 9 0.625
.ends

.subckt PM_DFFSRD16%n20 1 4 5 6 9 10 19 22 23 24 25 27 29 31 32 34 35 36 38 45
+ 47 48 53 58 61 62 67 68 80 81 87 95 96 101 109 112
c248 112 0 0.194146f
c249 109 0 0.0379462f
c250 101 0 0.0315178f
c251 96 0 0.0817766f
c252 95 0 0.0999491f
c253 87 0 0.0514512f
c254 86 0 0.0525828f
c255 81 0 0.0367621f
c256 80 0 0.0999195f
c257 68 0 0.0699554f
c258 67 0 0.0592541f
c259 62 0 0.0259695f
c260 61 0 0.0227777f
c261 58 0 8.33385e-20
c262 53 0 0.090624f
c263 48 0 0.0136537f
c264 47 0 0.0243372f
c265 45 0 0.0580368f
c266 38 0 0.157537f
c267 36 0 0.0865186f
c268 35 0 0.0796405f
c269 34 0 0.0480188f
c270 32 0 0.0509896f
c271 31 0 0.145003f
c272 29 0 0.0613577f
c273 27 0 0.0437176f
c274 25 0 0.236976f
c275 24 0 0.0268853f
c276 23 0 0.677049f
c277 22 0 0.101133f
c278 19 0 0.654394f
c279 5 0 0.0843002f
r280 109 112 1.05
r281 101 106 0.21
r282 95 96 0.35
r283 86 109 0.0532251
r284 81 96 0.0550476
r285 67 87 0.0945384
r286 67 68 0.488662
r287 62 64 0.833333
r288 58 106 0.0684127
r289 53 101 0.0684127
r290 53 55 0.25
r291 48 50 0.666667
r292 43 80 0.0945384
r293 43 45 0.488662
r294 41 62 0.0293644
r295 41 68 1.25
r296 38 64 0.0293644
r297 38 61 3.41667
r298 35 61 0.282372
r299 34 59 0.0658456
r300 33 34 1.16667
r301 32 58 0.488662
r302 31 33 0.279364
r303 31 32 3.33333
r304 30 50 0.0293644
r305 29 58 0.488662
r306 29 30 1.66667
r307 27 48 0.0293644
r308 27 47 0.75
r309 25 47 0.282372
r310 23 55 0.298409
r311 23 24 13.0833
r312 22 24 0.279364
r313 21 46 0.127482
r314 21 22 1.91667
r315 19 46 0.889019
r316 19 45 14.8333
r317 10 86 0.0661111
r318 10 87 0.0194444
r319 9 25 1.25
r320 6 80 0.0661111
r321 6 81 0.0194444
r322 5 112 0.0723016
r323 4 36 0.134785
r324 4 59 0.862069
r325 4 35 0.5
r326 4 36 0.5
r327 1 95 0.0723016
.ends

.subckt PM_DFFSRD16%RNb 1 4 7 8 11 14 25 28 29 30 31 34 36 37 38 40 43 45 47 49
+ 51 52 55 58 59 60 62 63 64 66 67 68 70 71 72 74 76 77 80 86 91 92 95 98 102
+ 105 107 109 114 119 120 122 124 129 131 137 142 146
c404 146 0 0.00820371f
c405 142 0 0.0245927f
c406 137 0 4.46953e-20
c407 131 0 0.0139949f
c408 129 0 0.0972866f
c409 124 0 0.119011f
c410 122 0 0.14322f
c411 120 0 0.0126312f
c412 119 0 0.104851f
c413 114 0 0.103209f
c414 109 0 0.0449011f
c415 107 0 0.0248792f
c416 105 0 0.324786f
c417 102 0 0.0407486f
c418 98 0 0.0567206f
c419 95 0 0.0680613f
c420 92 0 0.0193294f
c421 91 0 0.0579859f
c422 86 0 0.0338831f
c423 80 0 0.0537138f
c424 77 0 0.190569f
c425 76 0 0.0211307f
c426 74 0 0.259315f
c427 72 0 0.0275928f
c428 71 0 0.245103f
c429 70 0 0.0351692f
c430 68 0 0.0281649f
c431 67 0 0.126721f
c432 66 0 0.134519f
c433 64 0 0.0127876f
c434 63 0 0.187989f
c435 62 0 0.112444f
c436 60 0 0.00693136f
c437 59 0 0.141781f
c438 58 0 0.0353344f
c439 55 0 0.0246308f
c440 52 0 0.218969f
c441 51 0 0.742287f
c442 49 0 0.0247821f
c443 47 0 0.0537494f
c444 45 0 0.0418996f
c445 43 0 0.161009f
c446 40 0 0.71041f
c447 38 0 0.0396952f
c448 37 0 0.0693589f
c449 36 0 8.73864e-19
c450 34 0 0.0596154f
c451 31 0 0.21163f
c452 30 0 0.00626226f
c453 29 0 0.109287f
c454 28 0 0.127981f
c455 25 0 0.418046f
c456 11 0 0.335988f
r457 142 144 0.07
r458 125 142 0.00411102
r459 124 146 0.0417772
r460 124 125 1.65667
r461 123 137 0.0417772
r462 122 144 0.00411102
r463 122 123 0.863333
r464 121 131 0.0161215
r465 120 135 0.0417772
r466 120 121 0.105
r467 119 129 0.0417772
r468 118 131 0.0225096
r469 118 119 0.513333
r470 114 131 0.0161215
r471 105 106 0.407372
r472 102 146 0.0233333
r473 102 104 0.488662
r474 98 137 0.0233333
r475 98 100 0.488662
r476 93 95 1
r477 86 88 0.666667
r478 80 135 0.0233333
r479 80 82 0.166667
r480 76 109 0.833333
r481 74 76 0.279364
r482 73 74 5.25
r483 71 73 0.279364
r484 71 72 3.66667
r485 69 72 0.279364
r486 69 70 0.75
r487 67 70 0.279364
r488 67 68 1.83333
r489 65 68 0.279364
r490 65 66 3.5
r491 63 66 0.279364
r492 63 64 5.66667
r493 62 64 0.279364
r494 61 62 3
r495 59 61 0.279364
r496 59 60 4
r497 58 60 0.279364
r498 57 58 0.666667
r499 55 57 0.279364
r500 55 107 1.66667
r501 52 107 0.282372
r502 51 105 7.22333
r503 50 51 7.22167
r504 49 50 7.22167
r505 47 49 0.279364
r506 47 104 1.5
r507 45 95 0.0293644
r508 45 100 1.25
r509 42 93 0.0293644
r510 42 43 4.25
r511 40 43 0.279364
r512 40 92 12.75
r513 37 92 0.282372
r514 36 91 1.25
r515 34 36 0.279364
r516 33 34 2.5
r517 32 86 0.0293644
r518 31 33 0.279364
r519 31 32 5.5
r520 29 88 0.0293644
r521 29 30 5.25
r522 28 30 0.279364
r523 27 85 0.0987454
r524 27 28 2.75
r525 26 82 0.298409
r526 25 26 9.08333
r527 14 52 1.25
r528 14 106 1.5
r529 11 85 1.69173
r530 11 25 2.16225
r531 8 114 0.0777778
r532 7 77 0.125
r533 7 109 0.407372
r534 7 77 0.5
r535 4 38 0.125
r536 4 91 0.407372
r537 4 37 0.5
r538 4 38 0.5
r539 1 129 0.0272222
.ends

.subckt PM_DFFSRD16%RN 3 6 9 11 13 15 17 18 20 24 27 29
c66 29 0 0.152101f
c67 27 0 0.00809647f
c68 24 0 0.0383884f
c69 20 0 0.0541185f
c70 18 0 0.0222103f
c71 17 0 0.0224105f
c72 15 0 0.0789152f
c73 13 0 0.119493f
c74 11 0 0.120478f
c75 9 0 0.21188f
r76 29 35 0.128333
r77 29 40 0.641667
r78 27 40 0.0684127
r79 24 27 0.166667
r80 20 35 0.0684127
r81 20 22 0.166667
r82 15 22 0.298409
r83 15 18 1.5
r84 13 24 0.298409
r85 13 17 2.5
r86 11 18 0.282372
r87 9 17 0.282372
r88 6 9 1.25
r89 3 11 0.625
.ends

.subckt PM_DFFSRD16%SN 3 6 9 12 24 26 28 30 33 34 37 38 39 42 43 45 46 47 49 50
+ 51 53 55 56 61 62 64 66 69 72 74 75 81 85 86 88 90 91 94 95 97 100 102 105 108
+ 109 111 115 122 124 125 128 129 130 136 137 138 140 142 157 165 170 173 177
+ 181
c433 181 0 0.0484261f
c434 177 0 0.0372199f
c435 173 0 0.0222968f
c436 170 0 2.22927e-21
c437 165 0 0.303953f
c438 157 0 0.0767809f
c439 142 0 0.0242939f
c440 140 0 0.119827f
c441 138 0 0.00269882f
c442 137 0 0.0654749f
c443 136 0 0.020844f
c444 130 0 0.0045404f
c445 129 0 0.316068f
c446 128 0 0.0313842f
c447 125 0 0.148739f
c448 124 0 0.0164321f
c449 122 0 0.148046f
c450 115 0 0.15362f
c451 111 0 0.0167827f
c452 109 0 0.030379f
c453 108 0 0.0492602f
c454 102 0 0.0492728f
c455 97 0 0.0552495f
c456 95 0 0.159199f
c457 94 0 0.057195f
c458 91 0 0.118398f
c459 90 0 0.0564411f
c460 88 0 0.0018119f
c461 86 0 0.0651174f
c462 85 0 8.36262e-19
c463 81 0 0.0493461f
c464 75 0 0.0596953f
c465 74 0 0.0228651f
c466 72 0 0.00810239f
c467 69 0 0.00250879f
c468 66 0 0.112717f
c469 64 0 0.188403f
c470 62 0 0.230214f
c471 61 0 8.89644e-19
c472 56 0 0.399676f
c473 55 0 0.0267355f
c474 53 0 0.0587685f
c475 51 0 0.0237404f
c476 50 0 0.125802f
c477 49 0 0.116484f
c478 47 0 0.0280993f
c479 46 0 0.280754f
c480 45 0 0.0382001f
c481 43 0 0.0272155f
c482 42 0 0.0738664f
c483 39 0 0.0714253f
c484 38 0 0.148145f
c485 37 0 0.0289345f
c486 34 0 0.291948f
c487 33 0 0.109882f
c488 30 0 0.100251f
c489 28 0 0.0378918f
c490 26 0 0.37878f
c491 24 0 0.0940073f
c492 23 0 0.070025f
r493 179 181 0.14
r494 154 157 0.49
r495 142 181 0.00411102
r496 142 186 0.151667
r497 139 140 1.00333
r498 138 139 1.00333
r499 137 190 0.0417772
r500 137 140 1.00333
r501 136 138 0.039111
r502 136 178 0.07
r503 133 179 0.00411102
r504 133 177 0.268333
r505 131 173 0.0933333
r506 129 131 0.039111
r507 129 130 1.27167
r508 127 130 0.039111
r509 127 128 0.128333
r510 125 128 0.039111
r511 125 170 0.501667
r512 124 165 1.645
r513 122 124 0.039111
r514 122 162 0.665
r515 115 145 0.443333
r516 115 150 0.326667
r517 113 190 0.0233333
r518 108 186 0.0684127
r519 108 109 0.488662
r520 105 178 0.0684127
r521 105 177 0.0684127
r522 102 105 0.166667
r523 100 173 0.0684127
r524 97 100 0.166667
r525 94 170 0.0684127
r526 94 95 0.488662
r527 90 165 0.0684127
r528 90 91 0.488662
r529 88 162 0.0684127
r530 86 88 0.357995
r531 85 154 0.0684127
r532 81 157 0.0684127
r533 81 83 0.488662
r534 75 77 0.333333
r535 72 145 0.0684127
r536 69 150 0.0684127
r537 66 69 0.333333
r538 62 111 0.282372
r539 61 111 1.16667
r540 58 61 0.279364
r541 58 109 0.5
r542 57 97 0.298409
r543 56 102 0.298409
r544 56 57 8.83333
r545 55 95 2.83333
r546 53 55 0.279364
r547 52 53 1.16667
r548 50 52 0.279364
r549 50 51 2.33333
r550 49 51 0.279364
r551 48 49 3.25
r552 46 48 0.279364
r553 46 47 4.33333
r554 44 47 0.279364
r555 44 45 1.41667
r556 42 45 0.279364
r557 42 43 0.916667
r558 40 43 0.279364
r559 40 91 3.33333
r560 39 85 0.4
r561 38 86 0.280087
r562 38 39 5.83333
r563 37 83 1
r564 32 33 5.61
r565 31 77 0.0293644
r566 31 32 5.61
r567 30 37 0.279364
r568 30 33 5.61333
r569 28 75 0.0293644
r570 28 74 0.75
r571 27 66 0.298409
r572 26 27 9.91667
r573 23 74 0.282372
r574 12 62 1.25
r575 9 34 0.123153
r576 9 26 1.0819
r577 9 34 1.125
r578 6 64 0.166203
r579 6 113 0.594406
r580 6 64 0.5
r581 3 24 0.166203
r582 3 72 0.594406
r583 3 23 0.5
r584 3 24 0.5
.ends

.subckt PM_DFFSRD16%mout 1 2 5 6 7 8 11 12 21 22 24 26 35 36 51 53 54 55 60 61
+ 64 67 68 69 71 72 74 77 80 81 87 89 90 91 92 93 99 104 116 117 120
c270 120 0 0.0421877f
c271 117 0 0.0276857f
c272 116 0 0.0444965f
c273 104 0 0.00811334f
c274 99 0 0.00809665f
c275 93 0 0.00122238f
c276 92 0 0.0382069f
c277 91 0 0.0337924f
c278 90 0 0.0267161f
c279 89 0 0.137731f
c280 87 0 0.0849968f
c281 81 0 0.0543277f
c282 80 0 0.0298746f
c283 77 0 0.0605146f
c284 74 0 0.0441202f
c285 72 0 0.0841489f
c286 71 0 0.0580757f
c287 69 0 0.0197423f
c288 68 0 0.110689f
c289 67 0 0.0831433f
c290 64 0 0.0456741f
c291 61 0 0.0265921f
c292 60 0 0.0443653f
c293 55 0 0.0390506f
c294 54 0 0.0457462f
c295 53 0 0.00810973f
c296 51 0 0.0336768f
c297 36 0 0.103189f
c298 35 0 0.0483909f
c299 26 0 0.193598f
c300 24 0 0.381441f
c301 22 0 0.0791889f
c302 21 0 0.250957f
c303 6 0 0.0883367f
c304 2 0 0.0790488f
r305 117 120 0.245
r306 112 113 0.0450794
r307 90 91 0.233333
r308 80 117 0.0684127
r309 80 81 0.0505556
r310 79 112 0.0417772
r311 79 116 0.21
r312 77 113 0.35
r313 75 104 0.0417772
r314 74 77 0.039111
r315 74 75 0.186667
r316 73 93 0.0296412
r317 72 99 0.0417772
r318 72 73 0.933333
r319 71 94 0.0417772
r320 70 93 0.00770322
r321 70 71 0.396667
r322 68 93 0.0296412
r323 68 69 1.06167
r324 66 69 0.039111
r325 66 67 0.443333
r326 64 67 0.039111
r327 64 92 0.151667
r328 61 91 0.0532251
r329 60 92 0.0684127
r330 55 89 0.0684127
r331 54 90 0.0684127
r332 53 89 0.7
r333 51 87 0.0417772
r334 50 53 0.039111
r335 50 51 0.198333
r336 35 112 0.0233333
r337 35 36 0.488662
r338 33 104 0.0233333
r339 31 99 0.0233333
r340 28 36 3
r341 26 33 0.602895
r342 24 28 0.279364
r343 24 25 10.25
r344 22 31 0.602895
r345 21 25 0.921376
r346 12 81 0.0155556
r347 12 116 0.0878572
r348 11 21 1.25
r349 11 22 1.25
r350 8 60 0.0661111
r351 8 61 0.0194444
r352 7 54 0.0661111
r353 7 55 0.0194444
r354 6 120 0.0723016
r355 5 26 0.625
r356 2 94 0.0272222
r357 1 87 0.0272222
.ends

.subckt PM_DFFSRD16%n35 3 6 7 8 9 10 17 19 20 24 26 31 33 34 36 37 38 39 41 42
+ 45 56 62 65 68 69 71 73 74 75 78 81 83 84 87 88 95 104 105 108
c234 108 0 0.0557743f
c235 105 0 0.0342934f
c236 104 0 0.0748823f
c237 95 0 0.0447668f
c238 88 0 0.0600998f
c239 87 0 0.0505969f
c240 84 0 0.0295109f
c241 83 0 0.0168646f
c242 81 0 0.0209491f
c243 78 0 0.0748626f
c244 75 0 0.0321856f
c245 74 0 0.0448656f
c246 73 0 0.00501654f
c247 71 0 0.0526706f
c248 69 0 0.018133f
c249 68 0 0.0146362f
c250 65 0 0.0205139f
c251 62 0 0.0985452f
c252 56 0 0.0809919f
c253 45 0 0.0409465f
c254 42 0 0.029864f
c255 41 0 0.0498991f
c256 39 0 0.0220328f
c257 38 0 0.0762246f
c258 37 0 0.35944f
c259 36 0 0.00547879f
c260 34 0 0.0176565f
c261 33 0 0.00809647f
c262 31 0 0.0265403f
c263 26 0 0.228504f
c264 24 0 0.0263264f
c265 20 0 0.0742031f
c266 19 0 0.703801f
c267 17 0 0.386703f
c268 8 0 0.0867449f
r269 84 87 0.245
r270 83 108 0.256667
r271 80 83 0.039111
r272 80 81 0.116667
r273 78 81 0.039111
r274 78 105 0.35
r275 75 104 0.0600596
r276 74 105 0.0684127
r277 73 104 0.49
r278 71 100 0.28
r279 68 71 0.039111
r280 68 69 0.105
r281 66 69 0.039111
r282 66 95 0.28
r283 65 92 0.0933333
r284 62 65 0.039111
r285 62 88 0.478333
r286 56 84 0.0684127
r287 45 73 0.0684127
r288 45 47 0.488662
r289 41 100 0.0684127
r290 41 42 0.488662
r291 36 95 0.0684127
r292 36 38 0.494913
r293 36 37 0.494913
r294 34 37 9.08333
r295 33 92 0.0684127
r296 31 47 0.5
r297 28 42 0.5
r298 26 31 0.279364
r299 26 38 12.6667
r300 24 28 0.279364
r301 24 39 1.33333
r302 20 33 0.602895
r303 19 39 0.282372
r304 17 34 0.282372
r305 10 74 0.0661111
r306 10 75 0.0194444
r307 9 56 0.0661111
r308 8 108 0.0723016
r309 7 88 0.0723016
r310 7 87 0.0723016
r311 6 19 5
r312 6 20 5
r313 3 17 2.5
.ends

.subckt PM_DFFSRD16%qbint 5 6 11 12 17 18 19 26 27 38 41 44 67 68 70 71 72 74 77
+ 78 79 80 83 85 86 89 90 92 93 94 95 96 98 99 101 104 106 108 109 111 113 114
+ 116 117 118 121 122 126 128 130 136 140 144 147 148 152 153 155 156 157 159
+ 160 161 163 164 165 167 168
c298 168 0 0.00699271f
c299 167 0 0.0157675f
c300 165 0 0.0145347f
c301 164 0 0.00811279f
c302 163 0 0.0315193f
c303 161 0 0.0118147f
c304 160 0 0.0927907f
c305 159 0 0.105732f
c306 157 0 0.00269882f
c307 156 0 0.0971346f
c308 155 0 0.0225126f
c309 153 0 0.034082f
c310 152 0 0.0322288f
c311 148 0 0.16386f
c312 147 0 0.184706f
c313 144 0 0.0652925f
c314 140 0 0.202047f
c315 136 0 0.252711f
c316 131 0 0.00726821f
c317 130 0 0.017538f
c318 128 0 8.88997e-19
c319 126 0 0.0239304f
c320 122 0 0.0222337f
c321 121 0 0.0468881f
c322 118 0 0.464105f
c323 117 0 0.0135773f
c324 116 0 0.0781286f
c325 114 0 0.117204f
c326 113 0 0.454092f
c327 111 0 0.458317f
c328 109 0 0.602633f
c329 108 0 0.164996f
c330 106 0 0.0906146f
c331 104 0 0.131964f
c332 101 0 0.111517f
c333 99 0 0.0138205f
c334 98 0 0.465739f
c335 96 0 0.499581f
c336 95 0 0.0138205f
c337 94 0 0.0348291f
c338 93 0 0.0133159f
c339 92 0 0.0344092f
c340 90 0 0.036083f
c341 89 0 0.465739f
c342 86 0 0.487202f
c343 85 0 0.0679196f
c344 83 0 0.0887575f
c345 80 0 0.210422f
c346 79 0 0.0211167f
c347 78 0 0.425739f
c348 77 0 0.0547151f
c349 74 0 0.107959f
c350 72 0 0.0553184f
c351 71 0 0.156275f
c352 70 0 0.0141627f
c353 68 0 0.0114831f
c354 67 0 0.013181f
r355 167 172 0.07
r356 164 167 0.039111
r357 164 165 0.21
r358 162 165 0.039111
r359 162 163 0.21
r360 160 163 0.039111
r361 160 161 0.746667
r362 159 161 0.039111
r363 158 159 0.77
r364 156 158 0.039111
r365 156 157 0.63
r366 154 157 0.039111
r367 154 155 0.116667
r368 152 155 0.039111
r369 152 153 0.0933333
r370 149 168 0.0110506
r371 148 153 0.0517064
r372 146 168 0.0314184
r373 146 147 0.793333
r374 144 147 0.039111
r375 144 145 0.35
r376 140 168 0.0110506
r377 136 145 0.111111
r378 134 135 1.10294
r379 124 125 0.785714
r380 121 172 0.0684127
r381 121 122 0.443971
r382 116 118 0.266186
r383 116 117 1.83333
r384 114 135 0.137684
r385 113 117 0.266186
r386 109 132 0.831548
r387 108 134 0.0601979
r388 106 111 0.831548
r389 106 108 2.25
r390 105 131 0.211723
r391 105 106 1.91667
r392 104 131 0.211723
r393 103 132 0.049177
r394 103 104 2.33333
r395 101 131 0.055023
r396 101 130 2.5
r397 98 130 0.282372
r398 94 99 0.266186
r399 94 95 1
r400 92 96 0.266186
r401 92 93 1
r402 90 129 0.629542
r403 89 93 0.266186
r404 87 128 0.0135341
r405 86 95 0.266186
r406 85 127 0.0536562
r407 84 128 0.267081
r408 84 85 1.83333
r409 83 128 0.267081
r410 82 129 0.0780297
r411 82 83 2.16667
r412 80 127 0.641357
r413 78 129 0.204918
r414 78 79 7.64286
r415 76 79 0.28152
r416 76 77 1.33333
r417 74 77 0.279364
r418 74 126 1.5
r419 72 125 0.134114
r420 71 126 0.282372
r421 70 124 0.0672342
r422 69 70 0.833333
r423 67 69 0.279364
r424 67 68 2.5
r425 65 68 0.28152
r426 65 122 0.857143
r427 44 125 0.164419
r428 44 71 1.125
r429 44 72 1.125
r430 41 80 0.625
r431 38 109 5
r432 27 148 0.0661111
r433 27 149 0.0466667
r434 27 140 0.07
r435 26 118 2.5
r436 19 136 0.0505556
r437 18 98 5
r438 18 99 5
r439 17 96 5
r440 12 86 5
r441 12 87 5.4375
r442 11 89 5
r443 11 90 5
r444 6 135 0.157448
r445 6 113 4.875
r446 6 114 4.875
r447 5 111 5
.ends

.subckt PM_DFFSRD16%qint 5 6 11 12 17 18 19 24 50 53 54 56 57 59 60 61 62 63 66
+ 68 72 75 76 79 80 82 84 87 93 96 97 101 102
c103 102 0 0.00862565f
c104 101 0 0.037945f
c105 97 0 0.0736769f
c106 96 0 0.188082f
c107 93 0 0.04157f
c108 87 0 0.388289f
c109 84 0 0.0452732f
c110 82 0 0.550508f
c111 80 0 0.0376809f
c112 79 0 0.0580104f
c113 76 0 0.0657157f
c114 75 0 0.0444655f
c115 72 0 0.592816f
c116 68 0 0.179122f
c117 66 0 0.0192211f
c118 63 0 0.555065f
c119 62 0 0.0142048f
c120 61 0 0.0360707f
c121 60 0 0.0133159f
c122 59 0 0.0344092f
c123 57 0 0.0167046f
c124 56 0 0.518245f
c125 54 0 0.0144338f
c126 53 0 0.465739f
c127 50 0 0.02523f
c128 19 0 0.306281f
c129 5 0 0.524841f
r130 96 97 0.0800468
r131 95 96 0.466667
r132 93 102 0.0417772
r133 93 101 0.14
r134 87 101 0.0684127
r135 85 86 0.942029
r136 75 95 0.0684127
r137 75 102 0.0233333
r138 75 77 0.166667
r139 75 76 0.488662
r140 72 86 0.135831
r141 69 84 0.0135341
r142 68 85 0.0637454
r143 67 84 0.267081
r144 67 68 2.16667
r145 66 84 0.267081
r146 65 82 0.0993442
r147 65 66 1.83333
r148 61 62 1
r149 59 63 0.266186
r150 59 60 1
r151 57 80 0.282372
r152 56 62 0.266186
r153 54 79 0.282372
r154 53 60 0.266186
r155 52 77 0.298409
r156 52 80 1.33333
r157 50 79 2
r158 47 50 0.279364
r159 47 76 1.33333
r160 24 87 0.0661111
r161 19 97 0.0505556
r162 18 82 5.5625
r163 18 61 5.28237
r164 17 63 5
r165 12 56 5
r166 12 57 5
r167 11 53 5
r168 11 54 5
r169 6 86 0.160957
r170 6 72 4.875
r171 5 69 5.5
.ends

.subckt PM_DFFSRD16%CK 3 6 9 15 16 18
c19 18 0 0.215201f
c20 16 0 0.275713f
c21 15 0 0.792307f
r22 16 22 0.137684
r23 15 23 0.0601979
r24 14 15 7.66667
r25 9 22 0.661765
r26 9 14 0.441176
r27 6 22 0.157448
r28 6 16 1.125
r29 3 18 0.137684
r30 3 23 1.10294
r31 3 18 0.5
.ends

.subckt PM_DFFSRD16%net41 1 2 11 16 17 21
c30 21 0 0.0464737f
c31 17 0 0.0360713f
c32 16 0 0.0357714f
c33 11 0 0.1053f
c34 2 0 0.0873269f
r35 17 21 0.0636395
r36 16 21 0.233333
r37 11 16 0.0517064
r38 2 17 0.0194444
r39 1 11 0.0661111
.ends

.subckt PM_DFFSRD16%n42 1 3 11 15 16 18 20 25
c46 25 0 0.19249f
c47 20 0 0.0196793f
c48 18 0 0.0261283f
c49 16 0 0.0338855f
c50 15 0 0.0601882f
c51 11 0 0.083791f
c52 3 0 0.156163f
r53 20 25 0.933333
r54 17 20 0.039111
r55 17 18 0.116667
r56 15 18 0.039111
r57 15 16 0.186667
r58 11 16 0.0517064
r59 3 25 0.0878572
r60 1 11 0.0661111
.ends

.subckt PM_DFFSRD16%n40 1 2 11 16 17 18 20 21 22 24 25
c86 25 0 0.0454533f
c87 24 0 0.0209752f
c88 22 0 0.0208213f
c89 21 0 0.0886556f
c90 20 0 0.0458481f
c91 18 0 0.0037132f
c92 17 0 0.023921f
c93 16 0 0.0249321f
c94 11 0 0.140696f
c95 2 0 0.0937704f
r96 25 30 0.0800468
r97 24 30 0.0250789
r98 23 24 0.21
r99 21 23 0.039111
r100 21 22 0.63
r101 19 22 0.039111
r102 19 20 0.186667
r103 17 20 0.039111
r104 17 18 0.21
r105 15 18 0.039111
r106 15 16 0.116667
r107 11 16 0.0800468
r108 2 25 0.0194444
r109 1 11 0.0661111
.ends

.subckt PM_DFFSRD16%noxref_16 1 3 11 14 16 20 23
c46 23 0 0.0229618f
c47 20 0 0.0787441f
c48 16 0 0.0172156f
c49 14 0 0.0642733f
c50 11 0 0.0560951f
c51 3 0 0.0870009f
r52 16 23 0.0816667
r53 13 16 0.039111
r54 13 14 0.221667
r55 11 14 0.039111
r56 11 20 0.198333
r57 3 23 0.0723016
r58 1 20 0.0723016
.ends

.subckt PM_DFFSRD16%Q 1 10 19 40 41 47 48 49 50 55 61 62 68 69
c66 69 0 0.0329233f
c67 68 0 0.0383914f
c68 62 0 0.030357f
c69 61 0 0.0582824f
c70 55 0 0.108963f
c71 50 0 0.0296927f
c72 49 0 0.299315f
c73 48 0 0.0296927f
c74 47 0 0.0438562f
c75 41 0 0.334853f
c76 40 0 0.238384f
c77 1 0 0.351282f
r78 62 69 0.0572752
r79 61 69 0.21
r80 58 61 0.039111
r81 55 57 0.039111
r82 55 68 0.303333
r83 49 68 0.0636395
r84 47 50 0.0517064
r85 47 48 0.233333
r86 41 48 0.0517064
r87 40 58 0.163333
r88 40 57 0.42
r89 19 49 0.0661111
r90 19 50 0.0661111
r91 10 41 0.0661111
r92 1 62 0.0661111
.ends

.subckt PM_DFFSRD16%VSS 1 2 19 20 37 38 55 56 73 82 91 92 93 94 95 96 97 159 160
+ 173 177 179 180 186 187 189 205 206 207 208 215 222 235 236 243 250 251 252
+ 254 255
c270 255 0 0.0731102f
c271 254 0 0.0438171f
c272 252 0 0.930555f
c273 251 0 0.071314f
c274 250 0 0.0438171f
c275 249 0 0.0463594f
c276 243 0 0.0438171f
c277 236 0 0.0732606f
c278 235 0 0.454761f
c279 222 0 0.21859f
c280 215 0 0.0438171f
c281 208 0 0.0446892f
c282 207 0 0.522103f
c283 206 0 0.012743f
c284 205 0 0.0229761f
c285 189 0 0.204919f
c286 187 0 0.902238f
c287 186 0 0.891597f
c288 180 0 1.03667f
c289 179 0 1.73863f
c290 177 0 2.10515f
c291 173 0 1.39559f
c292 160 0 0.903351f
c293 97 0 1.04598f
c294 94 0 0.797025f
c295 93 0 1.00092f
c296 92 0 1.15175f
c297 82 0 1.5368f
c298 73 0 2.01637f
c299 56 0 0.571091f
c300 55 0 4.06765f
c301 37 0 1.214f
c302 20 0 0.581819f
c303 19 0 1.56654f
c304 1 0 1.22971f
r305 254 255 0.233333
r306 250 251 0.233333
r307 243 255 0.0550476
r308 235 254 0.0550476
r309 223 252 0.00677755
r310 222 236 0.0800468
r311 221 252 0.0427352
r312 221 222 0.653333
r313 215 251 0.0600596
r314 207 250 0.0600596
r315 205 208 0.0517064
r316 205 206 0.0933333
r317 191 249 0.00677755
r318 190 252 0.00677755
r319 189 206 0.039111
r320 188 249 0.0427352
r321 188 189 0.653333
r322 186 187 0.234873
r323 179 180 0.289333
r324 176 177 0.202207
r325 172 173 0.194413
r326 160 249 0.00677755
r327 160 187 0.23492
r328 97 186 0.234873
r329 96 179 0.289333
r330 96 177 0.202253
r331 95 176 0.202207
r332 95 173 0.194507
r333 94 172 0.194413
r334 93 94 0.21
r335 92 93 0.256667
r336 91 92 0.163333
r337 82 190 0.149333
r338 82 159 0.126
r339 73 97 0.28
r340 73 180 0.289333
r341 56 243 0.0661111
r342 38 235 0.0661111
r343 38 236 0.0661111
r344 37 55 0.168
r345 37 223 0.0746667
r346 20 215 0.0661111
r347 19 159 0.112
r348 2 207 0.0661111
r349 2 208 0.0661111
r350 1 19 0.168
r351 1 191 0.0793333
.ends

.subckt PM_DFFSRD16%QN 1 10 19 40 41 49 50 59 60 66 67 68
c53 68 0 0.0194651f
c54 67 0 0.04488f
c55 66 0 0.0296927f
c56 60 0 0.0299944f
c57 59 0 0.0144188f
c58 50 0 0.0296927f
c59 49 0 0.475303f
c60 41 0 0.338277f
c61 40 0 0.15139f
c62 1 0 0.354475f
r63 66 67 0.233333
r64 60 68 0.0600596
r65 59 68 0.0933333
r66 56 59 0.039111
r67 50 67 0.0532251
r68 49 55 0.0800468
r69 41 66 0.0532251
r70 40 56 0.28
r71 40 55 0.291667
r72 19 49 0.0661111
r73 19 50 0.0661111
r74 10 41 0.0661111
r75 1 60 0.0661111
.ends

.subckt PM_DFFSRD16%VDD 1 2 19 20 37 42 47 48 49 50 51 52 53 54 55 103 119 123
+ 126 130 131 137 141 148 149 154 155 159 165 166 168 170
c212 170 0 2.14913f
c213 168 0 0.466429f