* File: NAND2D8.pex.netlist.pex
* Created: Sat Dec 13 11:11:30 2025
* Program "Calibre xRC"
* Version "v2023.1_18.8"
* Nominal Temperature: 25C
* Circuit Temperature: 25C
* 
.subckt PM_NAND2D8_net14 3 10 17 24 38 39 53 54 64 65 75 76 86 87 97 98 108 109
+ 119 120 135 140 141 146 147 152 158 164 165 170 171 176 182 188 189 194 195
+ 200 206 212 213 218 219 224 230 236 237 242 243 248 254 260 261 266 267 272
+ 278 284 285 290 291 296 302 308 309 314 315 320 326 397 398 399 400 401 402
+ 403 404 405 406 407 408 409 410 411 412 413 414 415 416 417 418 419 420 421
+ 422 423 424 425 426 427 428 429 431 433 435 437 439 441 443 445 447 449 451
+ 453
r433 463 465 0.413569
r434 460 463 0.00212097
r435 455 458 0.52811
r436 453 463 0.320546
r437 453 458 1.84024
r438 333 460 1.5625
r439 330 460 0.520833
r440 325 326 0.793634
r441 325 428 0.793634
r442 321 326 0.793634
r443 319 320 0.793634
r444 319 427 0.793634
r445 315 321 0.812477
r446 315 320 0.793634
r447 313 314 0.793634
r448 313 426 0.793634
r449 309 315 0.812477
r450 309 314 0.793634
r451 307 308 0.793634
r452 307 425 0.793634
r453 303 309 0.812477
r454 303 308 0.793634
r455 301 302 0.793634
r456 301 424 0.793634
r457 297 303 0.812477
r458 297 302 0.793634
r459 295 296 0.793634
r460 295 423 0.793634
r461 291 297 0.812477
r462 291 296 0.793634
r463 289 290 0.793634
r464 289 422 0.793634
r465 285 291 0.812477
r466 285 290 0.793634
r467 283 284 0.793634
r468 283 421 0.793634
r469 279 285 0.812477
r470 279 284 0.793634
r471 277 278 0.793634
r472 277 420 0.793634
r473 273 279 0.812477
r474 273 278 0.793634
r475 271 272 0.793634
r476 271 419 0.793634
r477 267 273 0.812477
r478 267 272 0.793634
r479 265 266 0.793634
r480 265 418 0.793634
r481 261 267 0.812477
r482 261 266 0.793634
r483 259 260 0.793634
r484 259 417 0.793634
r485 255 261 0.812477
r486 255 260 0.793634
r487 253 254 0.793634
r488 253 416 0.793634
r489 249 255 0.812477
r490 249 254 0.793634
r491 247 248 0.793634
r492 247 415 0.793634
r493 243 249 0.812477
r494 243 248 0.793634
r495 241 242 0.793634
r496 241 414 0.793634
r497 237 243 0.812477
r498 237 242 0.793634
r499 235 236 0.793634
r500 235 413 0.793634
r501 231 237 0.812477
r502 231 236 0.793634
r503 229 230 0.793634
r504 229 412 0.793634
r505 225 231 0.812477
r506 225 230 0.793634
r507 223 224 0.793634
r508 223 411 0.793634
r509 219 225 0.812477
r510 219 224 0.793634
r511 217 218 0.793634
r512 217 410 0.793634
r513 213 219 0.812477
r514 213 218 0.793634
r515 211 212 0.793634
r516 211 409 0.793634
r517 207 213 0.812477
r518 207 212 0.793634
r519 205 206 0.793634
r520 205 408 0.793634
r521 201 207 0.812477
r522 201 206 0.793634
r523 199 200 0.793634
r524 199 407 0.793634
r525 195 201 0.812477
r526 195 200 0.793634
r527 193 194 0.793634
r528 193 406 0.793634
r529 189 195 0.812477
r530 189 194 0.793634
r531 187 188 0.793634
r532 187 405 0.793634
r533 183 189 0.812477
r534 183 188 0.793634
r535 181 182 0.793634
r536 181 404 0.793634
r537 177 183 0.812477
r538 177 182 0.793634
r539 175 176 0.793634
r540 175 403 0.793634
r541 171 177 0.812477
r542 171 176 0.793634
r543 169 170 0.793634
r544 169 402 0.793634
r545 165 171 0.812477
r546 165 170 0.793634
r547 163 164 0.793634
r548 163 401 0.793634
r549 159 165 0.812477
r550 159 164 0.793634
r551 157 158 0.793634
r552 157 400 0.793634
r553 153 159 0.812477
r554 153 158 0.793634
r555 151 152 0.793634
r556 151 399 0.793634
r557 147 153 0.812477
r558 147 333 0.37575
r559 147 152 0.793634
r560 145 146 0.793634
r561 145 398 0.793634
r562 141 333 0.436727
r563 141 330 0.0913834
r564 141 146 0.793634
r565 139 140 0.793634
r566 139 397 0.793634
r567 135 330 0.721094
r568 135 140 0.793634
r569 120 451 35.8101
r570 119 120 35.8101
r571 116 119 35.8101
r572 115 134 6.54082
r573 114 116 7.39434
r574 114 115 26.749
r575 109 449 35.8101
r576 108 109 35.8101
r577 105 134 0.652933
r578 105 108 35.8101
r579 104 133 6.54082
r580 103 134 6.54082
r581 103 104 26.749
r582 98 447 35.8101
r583 97 98 35.8101
r584 94 133 0.652933
r585 94 97 35.8101
r586 93 132 6.54082
r587 92 133 6.54082
r588 92 93 26.749
r589 87 445 35.8101
r590 86 87 35.8101
r591 83 132 0.652933
r592 83 86 35.8101
r593 82 131 6.54082
r594 81 132 6.54082
r595 81 82 26.749
r596 76 443 35.8101
r597 75 76 35.8101
r598 72 131 0.652933
r599 72 75 35.8101
r600 71 130 6.54082
r601 70 131 6.54082
r602 70 71 26.749
r603 65 441 35.8101
r604 64 65 35.8101
r605 61 130 0.652933
r606 61 64 35.8101
r607 60 129 6.54082
r608 59 130 6.54082
r609 59 60 26.749
r610 54 439 35.8101
r611 53 54 35.8101
r612 50 129 0.652933
r613 50 53 35.8101
r614 49 465 1.5625
r615 47 465 0.520833
r616 47 49 13.9095
r617 45 47 1.23099
r618 44 129 6.54082
r619 44 49 11.6085
r620 39 437 35.8101
r621 38 39 35.8101
r622 35 45 7.39434
r623 35 38 35.8101
r624 33 458 1.5625
r625 31 455 0.520833
r626 31 33 16.9695
r627 29 128 7.6338
r628 29 31 2.93769
r629 24 128 0.0725775
r630 24 435 26.7597
r631 23 127 7.6338
r632 22 128 7.6338
r633 22 23 32.6338
r634 17 127 0.0725775
r635 17 433 26.7597
r636 16 126 7.6338
r637 15 127 7.6338
r638 15 16 32.6338
r639 10 126 0.0725775
r640 10 431 26.7597
r641 9 125 7.6338
r642 8 126 7.6338
r643 8 9 32.6338
r644 3 125 0.0725775
r645 3 429 26.7597
.ends

.subckt PM_NAND2D8_VSS 1 48 49 57 58 66 67 75 76 84 85 93 94 102 103 111 112 120
+ 121 129 130 138 139 147 148 156 157 165 166 174 175 183 184 273 274 275 276
+ 277 278 279 280 281 282 284 286 288 289 290 292 294 296 298 300 302 304 306
+ 308 310 312 314 316 318 320
r167 329 331 0.57564
r168 327 329 1.30185
r169 323 326 0.57564
r170 321 327 0.247405
r171 321 326 0.340934
r172 263 326 1.5625
r173 260 323 0.520833
r174 247 263 0.0664421
r175 247 260 0.509198
r176 247 280 1.3829
r177 243 260 0.376402
r178 243 279 1.3829
r179 239 243 0.8856
r180 239 278 1.3829
r181 235 239 0.8856
r182 235 277 1.3829
r183 231 235 0.8856
r184 231 276 1.3829
r185 227 231 0.8856
r186 227 275 1.3829
r187 223 227 0.8856
r188 223 274 1.3829
r189 219 223 0.8856
r190 219 273 1.3829
r191 198 289 1.83336
r192 196 331 1.5625
r193 196 329 0.520833
r194 196 198 12.1183
r195 194 196 2.47521
r196 194 288 0.916678
r197 194 288 8.95818
r198 184 320 24.7155
r199 183 184 24.7142
r200 180 218 3.03423
r201 180 183 24.7142
r202 179 217 5.52744
r203 178 218 3.89768
r204 178 179 21.7558
r205 175 318 16.477
r206 174 175 16.4761
r207 171 217 1.43649
r208 171 174 16.4761
r209 170 216 5.52744
r210 169 217 5.52744
r211 169 170 21.7558
r212 166 316 16.477
r213 165 166 16.4761
r214 162 216 1.43649
r215 162 165 16.4761
r216 161 215 5.52744
r217 160 216 5.52744
r218 160 161 21.7558
r219 157 314 16.477
r220 156 157 16.4761
r221 153 215 1.43649
r222 153 156 16.4761
r223 152 214 5.52744
r224 151 215 5.52744
r225 151 152 21.7558
r226 148 312 16.477
r227 147 148 16.4761
r228 144 214 1.43649
r229 144 147 16.4761
r230 143 213 5.52744
r231 142 214 5.52744
r232 142 143 21.7558
r233 139 310 16.477
r234 138 139 16.4761
r235 135 213 1.43649
r236 135 138 16.4761
r237 134 212 5.52744
r238 133 213 5.52744
r239 133 134 21.7558
r240 130 308 16.477
r241 129 130 16.4761
r242 126 212 1.43649
r243 126 129 16.4761
r244 125 211 5.52744
r245 124 212 5.52744
r246 124 125 21.7558
r247 121 306 16.477
r248 120 121 16.4761
r249 117 211 1.43649
r250 117 120 16.4761
r251 116 210 5.52744
r252 115 211 5.52744
r253 115 116 21.7558
r254 112 304 16.477
r255 111 112 16.4761
r256 108 210 1.43649
r257 108 111 16.4761
r258 107 209 5.52744
r259 106 210 5.52744
r260 106 107 21.7558
r261 103 302 16.477
r262 102 103 16.4761
r263 99 209 1.43649
r264 99 102 16.4761
r265 98 208 5.52744
r266 97 209 5.52744
r267 97 98 21.7558
r268 94 300 16.477
r269 93 94 16.4761
r270 90 208 1.43649
r271 90 93 16.4761
r272 89 207 5.52744
r273 88 208 5.52744
r274 88 89 21.7558
r275 85 298 16.477
r276 84 85 16.4761
r277 81 207 1.43649
r278 81 84 16.4761
r279 80 206 5.52744
r280 79 207 5.52744
r281 79 80 21.7558
r282 76 296 16.477
r283 75 76 16.4761
r284 72 206 1.43649
r285 72 75 16.4761
r286 71 205 5.52744
r287 70 206 5.52744
r288 70 71 21.7558
r289 67 294 16.477
r290 66 67 16.4761
r291 63 205 1.43649
r292 63 66 16.4761
r293 62 204 5.52744
r294 61 205 5.52744
r295 61 62 21.7558
r296 58 292 16.477
r297 57 58 16.4761
r298 54 204 1.43649
r299 54 57 16.4761
r300 53 203 5.52744
r301 52 204 5.52744
r302 52 53 21.7558
r303 49 290 16.477
r304 48 49 16.4761
r305 45 203 1.43649
r306 45 48 16.4761
r307 44 202 5.52744
r308 43 203 5.52744
r309 43 44 21.7558
r310 40 198 6.23882
r311 40 289 28.0215
r312 39 202 1.43649
r313 39 289 33.9391
r314 35 194 8.95818
r315 35 288 9.39852
r316 31 288 6.89275
r317 30 190 9.23588
r318 29 31 7.45469
r319 29 30 42.3815
r320 24 190 0.970434
r321 24 286 27.1948
r322 23 189 9.23588
r323 22 190 9.23588
r324 22 23 42.3815
r325 17 189 0.970434
r326 17 284 27.1948
r327 16 188 9.23588
r328 15 189 9.23588
r329 15 16 42.3815
r330 10 188 0.970434
r331 10 282 27.1948
r332 8 188 9.23588
r333 8 9 42.3815
r334 4 9 7.29683
r335 4 281 50.9902
r336 2 202 5.52744
r337 1 2 14.3588
.ends

.subckt PM_NAND2D8_OUT 1 5 6 16 17 27 28 38 39 49 50 60 61 71 72 82 83 90 91 97
+ 99 104 105 106 113 115 120 121 123 124 137 139 144 145 146 153 155 160 161 162
+ 172 173 180 182 187 188 192 193 198 210 211 218 220 225 226 230 231 236 248
+ 249 256 258 263 264 268 269 274 286 287 294 296 301 302 306 307 358 360 362
+ 364 366 368 370 372 374 376 378 380 382 384 386 388 390 391 394 395 398 399
+ 402 403 406 407 410 411 414 415 418 419
r370 355 414 2.60416
r371 349 406 2.60416
r372 343 398 2.60416
r373 337 390 2.60416
r374 333 386 2.60416
r375 329 382 2.60416
r376 324 378 2.60416
r377 307 419 42.2211
r378 306 307 42.2207
r379 303 306 42.2207
r380 301 302 16.6793
r381 301 418 16.6793
r382 296 302 16.6798
r383 295 355 13.159
r384 294 296 8.46397
r385 294 295 44.3109
r386 293 356 8.95097
r387 292 293 40.5388
r388 287 415 42.2211
r389 286 287 42.2207
r390 283 356 0.822863
r391 283 286 42.2207
r392 277 352 8.95097
r393 276 356 8.95097
r394 276 277 40.5388
r395 275 351 9.53916
r396 274 355 13.159
r397 274 275 44.3997
r398 269 411 42.2211
r399 268 269 42.2207
r400 265 352 0.822863
r401 265 268 42.2207
r402 263 264 16.6793
r403 263 410 16.6793
r404 258 351 1.12241
r405 258 264 16.6798
r406 257 349 13.159
r407 256 351 9.53916
r408 256 257 44.3109
r409 255 350 8.95097
r410 254 352 8.95097
r411 254 255 40.5388
r412 249 407 42.2211
r413 248 249 42.2207
r414 245 350 0.822863
r415 245 248 42.2207
r416 239 346 8.95097
r417 238 350 8.95097
r418 238 239 40.5388
r419 237 345 9.53916
r420 236 349 13.159
r421 236 237 44.3997
r422 231 403 42.2211
r423 230 231 42.2207
r424 227 346 0.822863
r425 227 230 42.2207
r426 225 226 16.6793
r427 225 402 16.6793
r428 220 345 1.12241
r429 220 226 16.6798
r430 219 343 13.159
r431 218 345 9.53916
r432 218 219 44.3109
r433 217 344 8.95097
r434 216 346 8.95097
r435 216 217 40.5388
r436 211 399 42.2211
r437 210 211 42.2207
r438 207 344 0.822863
r439 207 210 42.2207
r440 201 340 8.95097
r441 200 344 8.95097
r442 200 201 40.5388
r443 199 339 9.53916
r444 198 343 13.159
r445 198 199 44.3997
r446 193 395 42.2211
r447 192 193 42.2207
r448 189 340 0.822863
r449 189 192 42.2207
r450 187 188 16.6793
r451 187 394 16.6793
r452 182 339 1.12241
r453 182 188 16.6798
r454 181 337 13.159
r455 180 339 9.53916
r456 180 181 44.3109
r457 179 338 8.95097
r458 178 340 8.95097
r459 178 179 40.5388
r460 173 391 42.2211
r461 172 173 42.2207
r462 169 338 0.822863
r463 169 172 42.2207
r464 163 334 9.53916
r465 162 337 13.159
r466 162 163 44.3997
r467 160 161 16.6793
r468 160 388 16.6793
r469 155 334 1.12241
r470 155 161 16.6798
r471 154 333 13.159
r472 153 334 9.53916
r473 153 154 44.3109
r474 147 330 9.53916
r475 146 333 13.159
r476 146 147 44.3997
r477 144 145 16.6793
r478 144 384 16.6793
r479 139 330 1.12241
r480 139 145 16.6798
r481 138 329 13.159
r482 137 330 9.53916
r483 137 138 44.3109
r484 130 131 59.9975
r485 129 130 59.9975
r486 128 129 59.9975
r487 127 326 8.95097
r488 127 128 59.9975
r489 126 338 8.95097
r490 126 131 59.9975
r491 125 325 13.3199
r492 124 329 13.159
r493 124 125 44.3997
r494 123 326 0.822863
r495 122 325 3.19811
r496 122 123 21.5383
r497 120 121 16.6793
r498 120 380 16.6793
r499 115 325 3.19811
r500 115 121 16.6798
r501 114 324 13.159
r502 113 325 13.3199
r503 113 114 44.3109
r504 107 321 9.53916
r505 106 324 13.159
r506 106 107 44.3997
r507 104 105 16.6793
r508 104 376 16.6793
r509 99 321 1.12241
r510 99 105 16.6798
r511 98 374 10.5632
r512 97 321 9.53916
r513 97 98 44.3109
r514 90 91 78.3745
r515 89 318 8.95097
r516 89 90 78.3745
r517 88 326 8.95097
r518 88 91 78.3761
r519 83 372 42.2211
r520 82 83 42.2207
r521 79 318 0.822863
r522 79 82 42.2207
r523 78 317 8.95097
r524 77 318 8.95097
r525 77 78 40.5388
r526 72 370 42.2211
r527 71 72 42.2207
r528 68 317 0.822863
r529 68 71 42.2207
r530 67 316 8.95097
r531 66 317 8.95097
r532 66 67 40.5388
r533 61 368 42.2211
r534 60 61 42.2207
r535 57 316 0.822863
r536 57 60 42.2207
r537 56 315 8.95097
r538 55 316 8.95097
r539 55 56 40.5388
r540 50 366 42.2211
r541 49 50 42.2207
r542 46 315 0.822863
r543 46 49 42.2207
r544 45 314 8.95097
r545 44 315 8.95097
r546 44 45 40.5388
r547 39 364 42.2211
r548 38 39 42.2207
r549 35 314 0.822863
r550 35 38 42.2207
r551 34 313 8.95097
r552 33 314 8.95097
r553 33 34 40.5388
r554 28 362 42.2211
r555 27 28 42.2207
r556 24 313 0.822863
r557 24 27 42.2207
r558 23 312 8.95097
r559 22 313 8.95097
r560 22 23 40.5388
r561 17 360 42.2211
r562 16 17 42.2207
r563 13 312 0.822863
r564 13 16 42.2207
r565 11 312 8.95097
r566 11 12 40.5388
r567 6 358 42.2211
r568 5 6 42.2207
r569 2 12 8.19075
r570 2 5 42.2207
r571 1 303 2.86054
r572 1 292 5.3302
.ends

.subckt PM_NAND2D8_VDD 1 4 11 14 21 22 25 32 33 36 43 44 47 54 55 58 65 66 69 76
+ 77 80 87 88 91 98 99 102 109 110 113 120 121 124 131 132 135 142 143 146 153
+ 154 157 164 165 168 175 176 179 186 187 190 197 198 201 208 209 212 219 220
+ 223 230 231 234 241 242 245 252 253 256 263 264 267 274 302 303 305 307 309
+ 311 313 315 317 319 321 323 325 327 329 331 333 335 337 339 341 343 345 347
+ 349
r362 273 274 52.214
r363 273 349 52.214
r364 267 301 3.03423
r365 267 274 52.214
r366 266 300 5.52744
r367 265 301 3.89768
r368 265 266 21.7558
r369 263 264 34.8093
r370 263 347 34.8093
r371 256 300 1.43649
r372 256 264 34.8093
r373 255 299 5.52744
r374 254 300 5.52744
r375 254 255 21.7558
r376 252 253 34.8093
r377 252 345 34.8093
r378 245 299 1.43649
r379 245 253 34.8093
r380 244 298 5.52744
r381 243 299 5.52744
r382 243 244 21.7558
r383 241 242 34.8093
r384 241 343 34.8093
r385 234 298 1.43649
r386 234 242 34.8093
r387 233 297 5.52744
r388 232 298 5.52744
r389 232 233 21.7558
r390 230 231 34.8093
r391 230 341 34.8093
r392 223 297 1.43649
r393 223 231 34.8093
r394 222 296 5.52744
r395 221 297 5.52744
r396 221 222 21.7558
r397 219 220 34.8093
r398 219 339 34.8093
r399 212 296 1.43649
r400 212 220 34.8093
r401 211 295 5.52744
r402 210 296 5.52744
r403 210 211 21.7558
r404 208 209 34.8093
r405 208 337 34.8093
r406 201 295 1.43649
r407 201 209 34.8093
r408 200 294 5.52744
r409 199 295 5.52744
r410 199 200 21.7558
r411 197 198 34.8093
r412 197 335 34.8093
r413 190 294 1.43649
r414 190 198 34.8093
r415 189 293 5.52744
r416 188 294 5.52744
r417 188 189 21.7558
r418 186 187 34.8093
r419 186 333 34.8093
r420 179 293 1.43649
r421 179 187 34.8093
r422 178 292 5.52744
r423 177 293 5.52744
r424 177 178 21.7558
r425 175 176 34.8093
r426 175 331 34.8093
r427 168 292 1.43649
r428 168 176 34.8093
r429 167 291 5.52744
r430 166 292 5.52744
r431 166 167 21.7558
r432 164 165 34.8093
r433 164 329 34.8093
r434 157 291 1.43649
r435 157 165 34.8093
r436 156 290 5.52744
r437 155 291 5.52744
r438 155 156 21.7558
r439 153 154 34.8093
r440 153 327 34.8093
r441 146 290 1.43649
r442 146 154 34.8093
r443 144 290 5.52744
r444 144 145 21.7558
r445 142 143 34.8093
r446 142 325 34.8093
r447 135 143 34.8093
r448 134 288 5.52744
r449 133 134 21.7558
r450 131 132 34.8093
r451 131 323 34.8093
r452 124 288 1.43649
r453 124 132 34.8093
r454 123 287 5.52744
r455 122 288 5.52744
r456 122 123 21.7558
r457 120 121 34.8093
r458 120 321 34.8093
r459 113 287 1.43649
r460 113 121 34.8093
r461 112 286 5.52744
r462 111 287 5.52744
r463 111 112 21.7558
r464 109 110 34.8093
r465 109 319 34.8093
r466 102 286 1.43649
r467 102 110 34.8093
r468 101 285 5.52744
r469 100 286 5.52744
r470 100 101 21.7558
r471 98 99 34.8093
r472 98 317 34.8093
r473 91 285 1.43649
r474 91 99 34.8093
r475 90 284 5.52744
r476 89 285 5.52744
r477 89 90 21.7558
r478 87 88 34.8093
r479 87 315 34.8093
r480 80 284 1.43649
r481 80 88 34.8093
r482 79 283 5.52744
r483 78 284 5.52744
r484 78 79 21.7558
r485 76 77 34.8093
r486 76 313 34.8093
r487 69 283 1.43649
r488 69 77 34.8093
r489 68 282 5.52744
r490 67 283 5.52744
r491 67 68 21.7558
r492 65 66 34.8093
r493 65 311 34.8093
r494 58 282 1.43649
r495 58 66 34.8093
r496 57 281 5.52744
r497 56 282 5.52744
r498 56 57 21.7558
r499 54 55 34.8093
r500 54 309 34.8093
r501 47 281 1.43649
r502 47 55 34.8093
r503 46 280 5.52744
r504 45 281 5.52744
r505 45 46 21.7558
r506 43 44 34.8093
r507 43 307 34.8093
r508 36 280 1.43649
r509 36 44 34.8093
r510 35 279 5.52744
r511 34 280 5.52744
r512 34 35 21.7558
r513 32 33 34.8093
r514 32 305 34.8093
r515 25 279 1.43649
r516 25 33 34.8093
r517 24 278 5.52744
r518 23 279 5.52744
r519 23 24 21.7558
r520 21 22 34.8093
r521 21 303 34.8093
r522 14 278 1.43649
r523 14 22 34.8093
r524 13 277 3.89768
r525 12 278 5.52744
r526 12 13 21.7558
r527 10 11 52.214
r528 10 302 52.214
r529 4 277 3.03423
r530 4 11 52.214
r531 1 135 1.43649
r532 1 133 5.52744
r533 1 145 5.52744
.ends

.subckt PM_NAND2D8_IN1 1 11 14 17 18 20 21 22 25 26 28 34 36 42 44 46 49 50 52
+ 53 54 57 58 60 66 68 74 76 78 81 82 84 85 86 89 90 92 98 100 106 108 110 113
+ 114 116 117 118 121 122 124 130 132 138 140 142 145 146 148 149 150 153 154
+ 156 162 164 170 172 174 177 178 180 181 182 185 186 188 194 196 198 202 204
+ 279 280 281 282 283 284 285 286 287 288 289 290 291 292 293 294 295 296 297
+ 298 299 300 301 302
r337 203 204 1.22053
r338 203 302 1.22053
r339 202 302 1.22056
r340 201 202 1.22053
r341 198 204 1.22056
r342 197 201 1.22053
r343 195 196 1.22053
r344 195 301 1.22053
r345 194 301 1.22056
r346 193 194 1.22053
r347 190 198 1.1808
r348 190 196 1.22056
r349 189 197 1.1808
r350 189 193 1.22053
r351 187 188 1.22053
r352 187 300 1.22053
r353 186 300 1.22056
r354 185 186 1.22053
r355 182 190 1.1808
r356 182 188 1.22056
r357 181 189 1.1808
r358 181 185 1.22053
r359 179 180 1.22053
r360 179 299 1.22053
r361 178 299 1.22056
r362 177 178 1.22053
r363 174 182 1.1808
r364 174 180 1.22056
r365 173 181 1.1808
r366 173 177 1.22053
r367 171 172 1.22053
r368 171 298 1.22053
r369 170 298 1.22056
r370 169 170 1.22053
r371 166 174 1.1808
r372 166 172 1.22056
r373 165 173 1.1808
r374 165 169 1.22053
r375 163 164 1.22053
r376 163 297 1.22053
r377 162 297 1.22056
r378 161 162 1.22053
r379 158 166 1.1808
r380 158 164 1.22056
r381 157 165 1.1808
r382 157 161 1.22053
r383 155 156 1.22053
r384 155 296 1.22053
r385 154 296 1.22056
r386 153 154 1.22053
r387 150 158 1.1808
r388 150 156 1.22056
r389 149 157 1.1808
r390 149 153 1.22053
r391 147 148 1.22053
r392 147 295 1.22053
r393 146 295 1.22056
r394 145 146 1.22053
r395 142 150 1.1808
r396 142 148 1.22056
r397 141 149 1.1808
r398 141 145 1.22053
r399 139 140 1.22053
r400 139 294 1.22053
r401 138 294 1.22056
r402 137 138 1.22053
r403 134 142 1.1808
r404 134 140 1.22056
r405 133 141 1.1808
r406 133 137 1.22053
r407 131 132 1.22053
r408 131 293 1.22053
r409 130 293 1.22056
r410 129 130 1.22053
r411 126 134 1.1808
r412 126 132 1.22056
r413 125 133 1.1808
r414 125 129 1.22053
r415 123 124 1.22053
r416 123 292 1.22053
r417 122 292 1.22056
r418 121 122 1.22053
r419 118 126 1.1808
r420 118 124 1.22056
r421 117 125 1.1808
r422 117 121 1.22053
r423 115 116 1.22053
r424 115 291 1.22053
r425 114 291 1.22056
r426 113 114 1.22053
r427 110 118 1.1808
r428 110 116 1.22056
r429 109 117 1.1808
r430 109 113 1.22053
r431 107 108 1.22053
r432 107 290 1.22053
r433 106 290 1.22056
r434 105 106 1.22053
r435 102 110 1.1808
r436 102 108 1.22056
r437 101 109 1.1808
r438 101 105 1.22053
r439 99 100 1.22053
r440 99 289 1.22053
r441 98 289 1.22056
r442 97 98 1.22053
r443 94 102 1.1808
r444 94 100 1.22056
r445 93 101 1.1808
r446 93 97 1.22053
r447 91 92 1.22053
r448 91 288 1.22053
r449 90 288 1.22056
r450 89 90 1.22053
r451 86 94 1.1808
r452 86 92 1.22056
r453 85 93 1.1808
r454 85 89 1.22053
r455 83 84 1.22053
r456 83 287 1.22053
r457 82 287 1.22056
r458 81 82 1.22053
r459 78 86 1.1808
r460 78 84 1.22056
r461 77 85 1.1808
r462 77 81 1.22053
r463 75 76 1.22053
r464 75 286 1.22053
r465 74 286 1.22056
r466 73 74 1.22053
r467 70 78 1.1808
r468 70 76 1.22056
r469 69 77 1.1808
r470 69 73 1.22053
r471 67 68 1.22053
r472 67 285 1.22053
r473 66 285 1.22056
r474 65 66 1.22053
r475 62 70 1.1808
r476 62 68 1.22056
r477 61 69 1.1808
r478 61 65 1.22053
r479 59 60 1.22053
r480 59 284 1.22053
r481 58 284 1.22056
r482 57 58 1.22053
r483 54 62 1.1808
r484 54 60 1.22056
r485 53 61 1.1808
r486 53 57 1.22053
r487 51 52 1.22053
r488 51 283 1.22053
r489 50 283 1.22056
r490 49 50 1.22053
r491 46 54 1.1808
r492 46 52 1.22056
r493 45 53 1.1808
r494 45 49 1.22053
r495 43 44 1.22053
r496 43 282 1.22053
r497 42 282 1.22056
r498 41 42 1.22053
r499 38 46 1.1808
r500 38 44 1.22056
r501 37 45 1.1808
r502 37 41 1.22053
r503 35 36 1.22053
r504 35 281 1.22053
r505 34 281 1.22056
r506 33 34 1.22053
r507 30 38 1.1808
r508 30 36 1.22056
r509 29 37 1.1808
r510 29 33 1.22053
r511 27 28 1.22053
r512 27 280 1.22053
r513 26 280 1.22056
r514 25 26 1.22053
r515 22 30 1.1808
r516 22 28 1.22056
r517 21 29 1.1808
r518 21 25 1.22053
r519 19 20 1.22053
r520 19 279 1.22053
r521 18 279 1.22056
r522 17 18 1.22053
r523 14 22 1.1808
r524 14 20 1.22056
r525 13 21 1.1808
r526 13 17 1.22053
r527 11 14 0.38376
r528 11 12 0.79704
r529 9 13 0.38376
r530 9 10 0.79704
r531 7 8 2.10082
r532 5 6 2.13034
r533 3 12 0.247405
r534 3 8 2.10088
r535 2 10 0.247405
r536 2 5 2.13034
r537 1 7 2.10082
r538 1 6 2.1304
.ends

.subckt PM_NAND2D8_IN2 1 3 6 7 9 10 11 14 15 17 23 25 31 33 35 38 39 41 42 43 46
+ 47 49 55 57 63 65 67 70 71 73 74 75 78 79 81 87 89 95 97 99 102 103 105 106
+ 107 110 111 113 119 121 127 129 131 134 135 137 138 139 142 143 145 151 153
+ 159 161 163 166 167 169 170 171 174 175 177 183 185 191 193 196 197 279 280
+ 281 282 283 284 285 286 287 288 289 290 291 292 293 294 295 296 297 298 299
+ 300 301 302
r337 203 204 2.30746
r338 201 202 1.9237
r339 199 204 2.30752
r340 198 201 1.9237
r341 196 199 0.247405
r342 196 197 0.79704
r343 194 198 0.247405
r344 194 195 0.79704
r345 192 193 1.22053
r346 192 302 1.22053
r347 191 302 1.22056
r348 190 191 1.22053
r349 187 197 0.38376
r350 187 193 1.22056
r351 186 195 0.38376
r352 186 190 1.22053
r353 184 185 1.22053
r354 184 301 1.22053
r355 183 301 1.22056
r356 182 183 1.22053
r357 179 187 1.1808
r358 179 185 1.22056
r359 178 186 1.1808
r360 178 182 1.22053
r361 176 177 1.22053
r362 176 300 1.22053
r363 175 300 1.22056
r364 174 175 1.22053
r365 171 179 1.1808
r366 171 177 1.22056
r367 170 178 1.1808
r368 170 174 1.22053
r369 168 169 1.22053
r370 168 299 1.22053
r371 167 299 1.22056
r372 166 167 1.22053
r373 163 171 1.1808
r374 163 169 1.22056
r375 162 170 1.1808
r376 162 166 1.22053
r377 160 161 1.22053
r378 160 298 1.22053
r379 159 298 1.22056
r380 158 159 1.22053
r381 155 163 1.1808
r382 155 161 1.22056
r383 154 162 1.1808
r384 154 158 1.22053
r385 152 153 1.22053
r386 152 297 1.22053
r387 151 297 1.22056
r388 150 151 1.22053
r389 147 155 1.1808
r390 147 153 1.22056
r391 146 154 1.1808
r392 146 150 1.22053
r393 144 145 1.22053
r394 144 296 1.22053
r395 143 296 1.22056
r396 142 143 1.22053
r397 139 147 1.1808
r398 139 145 1.22056
r399 138 146 1.1808
r400 138 142 1.22053
r401 136 137 1.22053
r402 136 295 1.22053
r403 135 295 1.22056
r404 134 135 1.22053
r405 131 139 1.1808
r406 131 137 1.22056
r407 130 138 1.1808
r408 130 134 1.22053
r409 128 129 1.22053
r410 128 294 1.22053
r411 127 294 1.22056
r412 126 127 1.22053
r413 123 131 1.1808
r414 123 129 1.22056
r415 122 130 1.1808
r416 122 126 1.22053
r417 120 121 1.22053
r418 120 293 1.22053
r419 119 293 1.22056
r420 118 119 1.22053
r421 115 123 1.1808
r422 115 121 1.22056
r423 114 122 1.1808
r424 114 118 1.22053
r425 112 113 1.22053
r426 112 292 1.22053
r427 111 292 1.22056
r428 110 111 1.22053
r429 107 115 1.1808
r430 107 113 1.22056
r431 106 114 1.1808
r432 106 110 1.22053
r433 104 105 1.22053
r434 104 291 1.22053
r435 103 291 1.22056
r436 102 103 1.22053
r437 99 107 1.1808
r438 99 105 1.22056
r439 98 106 1.1808
r440 98 102 1.22053
r441 96 97 1.22053
r442 96 290 1.22053
r443 95 290 1.22056
r444 94 95 1.22053
r445 91 99 1.1808
r446 91 97 1.22056
r447 90 98 1.1808
r448 90 94 1.22053
r449 88 89 1.22053
r450 88 289 1.22053
r451 87 289 1.22056
r452 86 87 1.22053
r453 83 91 1.1808
r454 83 89 1.22056
r455 82 90 1.1808
r456 82 86 1.22053
r457 80 81 1.22053
r458 80 288 1.22053
r459 79 288 1.22056
r460 78 79 1.22053
r461 75 83 1.1808
r462 75 81 1.22056
r463 74 82 1.1808
r464 74 78 1.22053
r465 72 73 1.22053
r466 72 287 1.22053
r467 71 287 1.22056
r468 70 71 1.22053
r469 67 75 1.1808
r470 67 73 1.22056
r471 66 74 1.1808
r472 66 70 1.22053
r473 64 65 1.22053
r474 64 286 1.22053
r475 63 286 1.22056
r476 62 63 1.22053
r477 59 67 1.1808
r478 59 65 1.22056
r479 58 66 1.1808
r480 58 62 1.22053
r481 56 57 1.22053
r482 56 285 1.22053
r483 55 285 1.22056
r484 54 55 1.22053
r485 51 59 1.1808
r486 51 57 1.22056
r487 50 58 1.1808
r488 50 54 1.22053
r489 48 49 1.22053
r490 48 284 1.22053
r491 47 284 1.22056
r492 46 47 1.22053
r493 43 51 1.1808
r494 43 49 1.22056
r495 42 50 1.1808
r496 42 46 1.22053
r497 40 41 1.22053
r498 40 283 1.22053
r499 39 283 1.22056
r500 38 39 1.22053
r501 35 43 1.1808
r502 35 41 1.22056
r503 34 42 1.1808
r504 34 38 1.22053
r505 32 33 1.22053
r506 32 282 1.22053
r507 31 282 1.22056
r508 30 31 1.22053
r509 27 35 1.1808
r510 27 33 1.22056
r511 26 34 1.1808
r512 26 30 1.22053
r513 24 25 1.22053
r514 24 281 1.22053
r515 23 281 1.22056
r516 22 23 1.22053
r517 19 27 1.1808
r518 19 25 1.22056
r519 18 26 1.1808
r520 18 22 1.22053
r521 16 17 1.22053
r522 16 280 1.22053
r523 15 280 1.22056
r524 14 15 1.22053
r525 11 19 1.1808
r526 11 17 1.22056
r527 10 18 1.1808
r528 10 14 1.22053
r529 8 9 1.22053
r530 8 279 1.22053
r531 7 279 1.22056
r532 6 7 1.22053
r533 3 11 1.1808
r534 3 9 1.22056
r535 2 10 1.1808
r536 2 6 1.22053
r537 1 203 2.30746
r538 1 202 1.92376
.ends

