* File: NAND2D8.cdl.pex
* Created: Mon Dec 22 21:03:44 2025
* Program "Calibre xRC"
* Version "v2023.1_18.8"
* Nominal Temperature: 25C
* Circuit Temperature: 25C
* 
.subckt PM_NAND2D8%net14 3 10 17 24 38 39 53 54 64 65 75 76 86 87 97 98 108 109
+ 119 120 135 140 141 146 147 152 158 164 165 170 171 176 182 188 189 194 195
+ 200 206 212 213 218 219 224 230 236 237 242 243 248 254 260 261 266 267 272
+ 278 284 285 290 291 296 302 308 309 314 315 320 326 397 398 399 400 401 402
+ 403 404 405 406 407 408 409 410 411 412 413 414 415 416 417 418 419 420 421
+ 422 423 424 425 426 427 428 429 431 433 435 437 439 441 443 445 447 449 451
+ 453
r433 463 465 0.413564
r434 460 463 0.00212629
r435 455 458 0.52811
r436 453 463 0.320546
r437 453 458 1.84026
r438 333 460 1.5625
r439 330 460 0.520833
r440 325 326 0.793634
r441 325 428 0.793634
r442 321 326 0.793634
r443 319 320 0.793634
r444 319 427 0.793634
r445 315 321 0.812477
r446 315 320 0.793634
r447 313 314 0.793634
r448 313 426 0.793634
r449 309 315 0.812477
r450 309 314 0.793634
r451 307 308 0.793634
r452 307 425 0.793634
r453 303 309 0.812477
r454 303 308 0.793634
r455 301 302 0.793634
r456 301 424 0.793634
r457 297 303 0.812477
r458 297 302 0.793634
r459 295 296 0.793634
r460 295 423 0.793634
r461 291 297 0.812477
r462 291 296 0.793634
r463 289 290 0.793634
r464 289 422 0.793634
r465 285 291 0.812477
r466 285 290 0.793634
r467 283 284 0.793634
r468 283 421 0.793634
r469 279 285 0.812477
r470 279 284 0.793634
r471 277 278 0.793634
r472 277 420 0.793634
r473 273 279 0.812477
r474 273 278 0.793634
r475 271 272 0.793634
r476 271 419 0.793634
r477 267 273 0.812477
r478 267 272 0.793634
r479 265 266 0.793634
r480 265 418 0.793634
r481 261 267 0.812477
r482 261 266 0.793634
r483 259 260 0.793634
r484 259 417 0.793634
r485 255 261 0.812477
r486 255 260 0.793634
r487 253 254 0.793634
r488 253 416 0.793634
r489 249 255 0.812477
r490 249 254 0.793634
r491 247 248 0.793634
r492 247 415 0.793634
r493 243 249 0.812477
r494 243 248 0.793634
r495 241 242 0.793634
r496 241 414 0.793634
r497 237 243 0.812477
r498 237 242 0.793634
r499 235 236 0.793634
r500 235 413 0.793634
r501 231 237 0.812477
r502 231 236 0.793634
r503 229 230 0.793634
r504 229 412 0.793634
r505 225 231 0.812477
r506 225 230 0.793634
r507 223 224 0.793634
r508 223 411 0.793634
r509 219 225 0.812477
r510 219 224 0.793634
r511 217 218 0.793634
r512 217 410 0.793634
r513 213 219 0.812477
r514 213 218 0.793634
r515 211 212 0.793634
r516 211 409 0.793634
r517 207 213 0.812477
r518 207 212 0.793634
r519 205 206 0.793634
r520 205 408 0.793634
r521 201 207 0.812477
r522 201 206 0.793634
r523 199 200 0.793634
r524 199 407 0.793634
r525 195 201 0.812477
r526 195 200 0.793634
r527 193 194 0.793634
r528 193 406 0.793634
r529 189 195 0.812477
r530 189 194 0.793634
r531 187 188 0.793634
r532 187 405 0.793634
r533 183 189 0.812477
r534 183 188 0.793634
r535 181 182 0.793634
r536 181 404 0.793634
r537 177 183 0.812477
r538 177 182 0.793634
r539 175 176 0.793634
r540 175 403 0.793634
r541 171 177 0.812477
r542 171 176 0.793634
r543 169 170 0.793634
r544 169 402 0.793634
r545 165 171 0.812477
r546 165 170 0.793634
r547 163 164 0.793634
r548 163 401 0.793634
r549 159 165 0.812477
r550 159 164 0.793634
r551 157 158 0.793634
r552 157 400 0.793634
r553 153 159 0.812477
r554 153 158 0.793634
r555 151 152 0.793634
r556 151 399 0.793634
r557 147 153 0.812477
r558 147 333 0.375771
r559 147 152 0.793634
r560 145 146 0.793634
r561 145 398 0.793634
r562 141 333 0.436706
r563 141 330 0.0914037
r564 141 146 0.793634
r565 139 140 0.793634
r566 139 397 0.793634
r567 135 330 0.721073
r568 135 140 0.793634
r569 120 451 35.8101
r570 119 120 35.8101
r571 116 119 35.8101
r572 115 134 6.54082
r573 114 116 7.39434
r574 114 115 26.749
r575 109 449 35.8101
r576 108 109 35.8101
r577 105 134 0.652933
r578 105 108 35.8101
r579 104 133 6.54082
r580 103 134 6.54082
r581 103 104 26.749
r582 98 447 35.8101
r583 97 98 35.8101
r584 94 133 0.652933
r585 94 97 35.8101
r586 93 132 6.54082
r587 92 133 6.54082
r588 92 93 26.749
r589 87 445 35.8101
r590 86 87 35.8101
r591 83 132 0.652933
r592 83 86 35.8101
r593 82 131 6.54082
r594 81 132 6.54082
r595 81 82 26.749
r596 76 443 35.8101
r597 75 76 35.8101
r598 72 131 0.652933
r599 72 75 35.8101
r600 71 130 6.54082
r601 70 131 6.54082
r602 70 71 26.749
r603 65 441 35.8101
r604 64 65 35.8101
r605 61 130 0.652933
r606 61 64 35.8101
r607 60 129 6.54082
r608 59 130 6.54082
r609 59 60 26.749
r610 54 439 35.8101
r611 53 54 35.8101
r612 50 129 0.652933
r613 50 53 35.8101
r614 49 465 1.5625
r615 47 465 0.520833
r616 47 49 13.9095
r617 45 47 1.23045
r618 44 129 6.54082
r619 44 49 11.6091
r620 39 437 35.8101
r621 38 39 35.8101
r622 35 45 7.39434
r623 35 38 35.8101
r624 33 458 1.5625
r625 31 455 0.520833
r626 31 33 16.9695
r627 29 128 7.6338
r628 29 31 2.93704
r629 24 128 0.0725775
r630 24 435 26.7597
r631 23 127 7.6338
r632 22 128 7.6338
r633 22 23 32.6338
r634 17 127 0.0725775
r635 17 433 26.7597
r636 16 126 7.6338
r637 15 127 7.6338
r638 15 16 32.6338
r639 10 126 0.0725775
r640 10 431 26.7597
r641 9 125 7.6338
r642 8 126 7.6338
r643 8 9 32.6338
r644 3 125 0.0725775
r645 3 429 26.7597
.ends

.subckt PM_NAND2D8%VSS 1 48 49 57 58 66 67 75 76 84 85 93 94 102 103 111 112 120
+ 121 129 130 138 139 147 148 156 157 165 166 174 175 183 184 273 274 275 276
+ 277 278 279 280 281 282 284 286 288 289 290 292 294 296 298 300 302 304 306
+ 308 310 312 314 316 318 320
r167 329 331 0.57564
r168 327 329 1.30183
r169 323 326 0.57564
r170 321 327 0.247405
r171 321 326 0.340956
r172 263 326 1.5625
r173 260 323 0.520833
r174 247 263 0.06642
r175 247 260 0.50922
r176 247 280 1.3829
r177 243 260 0.37638
r178 243 279 1.3829
r179 239 243 0.8856
r180 239 278 1.3829
r181 235 239 0.8856
r182 235 277 1.3829
r183 231 235 0.8856
r184 231 276 1.3829
r185 227 231 0.8856
r186 227 275 1.3829
r187 223 227 0.8856
r188 223 274 1.3829
r189 219 223 0.8856
r190 219 273 1.3829
r191 198 289 1.83336
r192 196 331 1.5625
r193 196 329 0.520833
r194 196 198 12.1185
r195 194 196 2.47503
r196 194 288 0.916678
r197 194 288 8.95818
r198 184 320 24.7155
r199 183 184 24.7142
r200 180 218 3.03423
r201 180 183 24.7142
r202 179 217 5.52744
r203 178 218 3.89768
r204 178 179 21.7558
r205 175 318 16.477
r206 174 175 16.4761
r207 171 217 1.43649
r208 171 174 16.4761
r209 170 216 5.52744
r210 169 217 5.52744
r211 169 170 21.7558
r212 166 316 16.477
r213 165 166 16.4761
r214 162 216 1.43649
r215 162 165 16.4761
r216 161 215 5.52744
r217 160 216 5.52744
r218 160 161 21.7558
r219 157 314 16.477
r220 156 157 16.4761
r221 153 215 1.43649
r222 153 156 16.4761
r223 152 214 5.52744
r224 151 215 5.52744
r225 151 152 21.7558
r226 148 312 16.477
r227 147 148 16.4761
r228 144 214 1.43649
r229 144 147 16.4761
r230 143 213 5.52744
r231 142 214 5.52744
r232 142 143 21.7558
r233 139 310 16.477
r234 138 139 16.4761
r235 135 213 1.43649
r236 135 138 16.4761
r237 134 212 5.52744
r238 133 213 5.52744
r239 133 134 21.7558
r240 130 308 16.477
r241 129 130 16.4761
r242 126 212 1.43649
r243 126 129 16.4761
r244 125 211 5.52744
r245 124 212 5.52744
r246 124 125 21.7558
r247 121 306 16.477
r248 120 121 16.4761
r249 117 211 1.43649
r250 117 120 16.4761
r251 116 210 5.52744
r252 115 211 5.52744
r253 115 116 21.7558
r254 112 304 16.477
r255 111 112 16.4761
r256 108 210 1.43649
r257 108 111 16.4761
r258 107 209 5.52744
r259 106 210 5.52744
r260 106 107 21.7558
r261 103 302 16.477
r262 102 103 16.4761
r263 99 209 1.43649
r264 99 102 16.4761
r265 98 208 5.52744
r266 97 209 5.52744
r267 97 98 21.7558
r268 94 300 16.477
r269 93 94 16.4761
r270 90 208 1.43649
r271 90 93 16.4761
r272 89 207 5.52744
r273 88 208 5.52744
r274 88 89 21.7558
r275 85 298 16.477
r276 84 85 16.4761
r277 81 207 1.43649
r278 81 84 16.4761
r279 80 206 5.52744
r280 79 207 5.52744
r281 79 80 21.7558
r282 76 296 16.477
r283 75 76 16.4761
r284 72 206 1.43649
r285 72 75 16.4761
r286 71 205 5.52744
r287 70 206 5.52744
r288 70 71 21.7558
r289 67 294 16.477
r290 66 67 16.4761
r291 63 205 1.43649
r292 63 66 16.4761
r293 62 204 5.52744
r294 61 205 5.52744
r295 61 62 21.7558
r296 58 292 16.477
r297 57 58 16.4761
r298 54 204 1.43649
r299 54 57 16.4761
r300 53 203 5.52744
r301 52 204 5.52744
r302 52 53 21.7558
r303 49 290 16.477
r304 48 49 16.4761
r305 45 203 1.43649
r306 45 48 16.4761
r307 44 202 5.52744
r308 43 203 5.52744
r309 43 44 21.7558
r310 40 198 6.23882
r311 40 289 28.0215
r312 39 202 1.43649
r313 39 289 33.9391
r314 35 194 8.95818
r315 35 288 9.39852
r316 31 288 6.89275
r317 30 190 9.23588
r318 29 31 7.45469
r319 29 30 42.3815
r320 24 190 0.970434
r321 24 286 27.1948
r322 23 189 9.23588
r323 22 190 9.23588
r324 22 23 42.3815
r325 17 189 0.970434
r326 17 284 27.1948
r327 16 188 9.23588
r328 15 189 9.23588
r329 15 16 42.3815
r330 10 188 0.970434
r331 10 282 27.1948
r332 8 188 9.23588
r333 8 9 42.3815
r334 4 9 7.29683
r335 4 281 50.9902
r336 2 202 5.52744
r337 1 2 14.3588
.ends

.subckt PM_NAND2D8%OUT 1 5 6 16 17 27 28 38 39 49 50 60 61 71 72 82 83 90 91 97
+ 99 104 105 106 113 115 120 121 123 124 137 139 144 145 146 153 155 160 161 162
+ 172 173 180 182 187 188 192 193 198 210 211 218 220 225 226 230 231 236 248
+ 249 256 258 263 264 268 269 274 286 287 294 296 301 302 306 307 358 360 362
+ 364 366 368 370 372 374 376 378 380 382 384 386 388 390 391 394 395 398 399
+ 402 403 406 407 410 411 414 415 418 419
r370 355 414 2.60416
r371 349 406 2.60416
r372 343 398 2.60416
r373 337 390 2.60416
r374 333 386 2.60416
r375 329 382 2.60416
r376 324 378 2.60416
r377 307 419 42.2211
r378 306 307 42.2207
r379 303 306 42.2207
r380 301 302 16.6793
r381 301 418 16.6793
r382 296 302 16.6798
r383 295 355 13.159
r384 294 296 8.46397
r385 294 295 44.3109
r386 293 356 8.95097
r387 292 293 40.5388
r388 287 415 42.2211
r389 286 287 42.2207
r390 283 356 0.822863
r391 283 286 42.2207
r392 277 352 8.95097
r393 276 356 8.95097
r394 276 277 40.5388
r395 275 351 9.53916
r396 274 355 13.159
r397 274 275 44.3997
r398 269 411 42.2211
r399 268 269 42.2207
r400 265 352 0.822863
r401 265 268 42.2207
r402 263 264 16.6793
r403 263 410 16.6793
r404 258 351 1.12241
r405 258 264 16.6798
r406 257 349 13.159
r407 256 351 9.53916
r408 256 257 44.3109
r409 255 350 8.95097
r410 254 352 8.95097
r411 254 255 40.5388
r412 249 407 42.2211
r413 248 249 42.2207
r414 245 350 0.822863
r415 245 248 42.2207
r416 239 346 8.95097
r417 238 350 8.95097
r418 238 239 40.5388
r419 237 345 9.53916
r420 236 349 13.159
r421 236 237 44.3997
r422 231 403 42.2211
r423 230 231 42.2207
r424 227 346 0.822863
r425 227 230 42.2207
r426 225 226 16.6793
r427 225 402 16.6793
r428 220 345 1.12241
r429 220 226 16.6798
r430 219 343 13.159
r431 218 345 9.53916
r432 218 219 44.3109
r433 217 344 8.95097
r434 216 346 8.95097
r435 216 217 40.5388
r436 211 399 42.2211
r437 210 211 42.2207
r438 207 344 0.822863
r439 207 210 42.2207
r440 201 340 8.95097
r441 200 344 8.95097
r442 200 201 40.5388
r443 199 339 9.53916
r444 198 343 13.159
r445 198 199 44.3997
r446 193 395 42.2211
r447 192 193 42.2207
r448 189 340 0.822863
r449 189 192 42.2207
r450 187 188 16.6793
r451 187 394 16.6793
r452 182 339 1.12241
r453 182 188 16.6798
r454 181 337 13.159
r455 180 339 9.53916
r456 180 181 44.3109
r457 179 338 8.95097
r458 178 340 8.95097
r459 178 179 40.5388
r460 173 391 42.2211
r461 172 173 42.2207
r462 169 338 0.822863
r463 169 172 42.2207
r464 163 334 9.53916
r465 162 337 13.159
r466 162 163 44.3997
r467 160 161 16.6793
r468 160 388 16.6793
r469 155 334 1.12241
r470 155 161 16.6798
r471 154 333 13.159
r472 153 334 9.53916
r473 153 154 44.3109
r474 147 330 9.53916
r475 146 333 13.159
r476 146 147 44.3997
r477 144 145 16.6793
r478 144 384 16.6793
r479 139 330 1.12241
r480 139 145 16.6798
r481 138 329 13.159
r482 137 330 9.53916
r483 137 138 44.3109
r484 130 131 59.9975
r485 129 130 59.9975
r486 128 129 59.9975
r487 127 326 8.95097
r488 127 128 59.9975
r489 126 338 8.95097
r490 126 131 59.9975
r491 125 325 13.3199
r492 124 329 13.159
r493 124 125 44.3997
r494 123 326 0.822863
r495 122 325 3.19811
r496 122 123 21.5383
r497 120 121 16.6793
r498 120 380 16.6793
r499 115 325 3.19811
r500 115 121 16.6798
r501 114 324 13.159
r502 113 325 13.3199
r503 113 114 44.3109
r504 107 321 9.53916
r505 106 324 13.159
r506 106 107 44.3997
r507 104 105 16.6793
r508 104 376 16.6793
r509 99 321 1.12241
r510 99 105 16.6798
r511 98 374 10.5632
r512 97 321 9.53916
r513 97 98 44.3109
r514 90 91 78.3745
r515 89 318 8.95097
r516 89 90 78.3745
r517 88 326 8.95097
r518 88 91 78.3761
r519 83 372 42.2211
r520 82 83 42.2207
r521 79 318 0.822863
r522 79 82 42.2207
r523 78 317 8.95097
r524 77 318 8.95097
r525 77 78 40.5388
r526 72 370 42.2211
r527 71 72 42.2207
r528 68 317 0.822863
r529 68 71 42.2207
r530 67 316 8.95097
r531 66 317 8.95097
r532 66 67 40.5388
r533 61 368 42.2211
r534 60 61 42.2207
r535 57 316 0.822863
r536 57 60 42.2207
r537 56 315 8.95097
r538 55 316 8.95097
r539 55 56 40.5388
r540 50 366 42.2211
r541 49 50 42.2207
r542 46 315 0.822863
r543 46 49 42.2207
r544 45 314 8.95097
r545 44 315 8.95097
r546 44 45 40.5388
r547 39 364 42.2211
r548 38 39 42.2207
r549 35 314 0.822863
r550 35 38 42.2207
r551 34 313 8.95097
r552 33 314 8.95097
r553 33 34 40.5388
r554 28 362 42.2211
r555 27 28 42.2207
r556 24 313 0.822863
r557 24 27 42.2207
r558 23 312 8.95097
r559 22 313 8.95097
r560 22 23 40.5388
r561 17 360 42.2211
r562 16 17 42.2207
r563 13 312 0.822863
r564 13 16 42.2207
r565 11 312 8.95097
r566 11 12 40.5388
r567 6 358 42.2211
r568 5 6 42.2207
r569 2 12 8.19075
r570 2 5 42.2207
r571 1 303 2.86054
r572 1 292 5.3302
.ends

.subckt PM_NAND2D8%VDD 1 4 11 14 21 22 25 32 33 36 43 44 47 54 55 58 65 66 69 76
+ 77 80 87 88 91 98 99 102 109 110 113 120 121 124 131 132 135 142 143 146 153
+ 154 157 164 165 168 175 176 179 186 187 190 197 198 201 208 209 212 219 220
+ 223 230 231 234 241 242 245 252 253 256 263 264 267 274 302 303 305 307 309
+ 311 313 315 317 319 321 323 325 327 329 331 333 335 337 339 341 343 345 347
+ 349
r362 273 274 52.214
r363 273 349 52.214
r364 267 301 3.03423
r365 267 274 52.214
r366 266 300 5.52744
r367 265 301 3.89768
r368 265 266 21.7558
r369 263 264 34.8093
r370 263 347 34.8093
r371 256 300 1.43649
r372 256 264 34.8093
r373 255 299 5.52744
r374 254 300 5.52744
r375 254 255 21.7558
r376 252 253 34.8093
r377 252 345 34.8093
r378 245 299 1.43649
r379 245 253 34.8093
r380 244 298 5.52744
r381 243 299 5.52744
r382 243 244 21.7558
r383 241 242 34.8093
r384 241 343 34.8093
r385 234 298 1.43649
r386 234 242 34.8093
r387 233 297 5.52744
r388 232 298 5.52744
r389 232 233 21.7558
r390 230 231 34.8093
r391 230 341 34.8093
r392 223 297 1.43649
r393 223 231 34.8093
r394 222 296 5.52744
r395 221 297 5.52744
r396 221 222 21.7558
r397 219 220 34.8093
r398 219 339 34.8093
r399 212 296 1.43649
r400 212 220 34.8093
r401 211 295 5.52744
r402 210 296 5.52744
r403 210 211 21.7558
r404 208 209 34.8093
r405 208 337 34.8093
r406 201 295 1.43649
r407 201 209 34.8093
r408 200 294 5.52744
r409 199 295 5.52744
r410 199 200 21.7558
r411 197 198 34.8093
r412 197 335 34.8093
r413 190 294 1.43649
r414 190 198 34.8093
r415 189 293 5.52744
r416 188 294 5.52744
r417 188 189 21.7558
r418 186 187 34.8093
r419 186 333 34.8093
r420 179 293 1.43649
r421 179 187 34.8093
r422 178 292 5.52744
r423 177 293 5.52744
r424 177 178 21.7558
r425 175 176 34.8093
r426 175 331 34.8093
r427 168 292 1.43649
r428 168 176 34.8093
r429 167 291 5.52744
r430 166 292 5.52744
r431 166 167 21.7558
r432 164 165 34.8093
r433 164 329 34.8093
r434 157 291 1.43649
r435 157 165 34.8093
r436 156 290 5.52744
r437 155 291 5.52744
r438 155 156 21.7558
r439 153 154 34.8093
r440 153 327 34.8093
r441 146 290 1.43649
r442 146 154 34.8093
r443 144 290 5.52744
r444 144 145 21.7558
r445 142 143 34.8093
r446 142 325 34.8093
r447 135 143 34.8093
r448 134 288 5.52744
r449 133 134 21.7558
r450 131 132 34.8093
r451 131 323 34.8093
r452 124 288 1.43649
r453 124 132 34.8093
r454 123 287 5.52744
r455 122 288 5.52744
r456 122 123 21.7558
r457 120 121 34.8093
r458 120 321 34.8093
r459 113 287 1.43649
r460 113 121 34.8093
r461 112 286 5.52744
r462 111 287 5.52744
r463 111 112 21.7558
r464 109 110 34.8093
r465 109 319 34.8093
r466 102 286 1.43649
r467 102 110 34.8093
r468 101 285 5.52744
r469 100 286 5.52744
r470 100 101 21.7558
r471 98 99 34.8093
r472 98 317 34.8093
r473 91 285 1.43649
r474 91 99 34.8093
r475 90 284 5.52744
r476 89 285 5.52744
r477 89 90 21.7558
r478 87 88 34.8093
r479 87 315 34.8093
r480 80 284 1.43649
r481 80 88 34.8093
r482 79 283 5.52744
r483 78 284 5.52744
r484 78 79 21.7558
r485 76 77 34.8093
r486 76 313 34.8093
r487 69 283 1.43649
r488 69 77 34.8093
r489 68 282 5.52744
r490 67 283 5.52744
r491 67 68 21.7558
r492 65 66 34.8093
r493 65 311 34.8093
r494 58 282 1.43649
r495 58 66 34.8093
r496 57 281 5.52744
r497 56 282 5.52744
r498 56 57 21.7558
r499 54 55 34.8093
r500 54 309 34.8093
r501 47 281 1.43649
r502 47 55 34.8093
r503 46 280 5.52744
r504 45 281 5.52744
r505 45 46 21.7558
r506 43 44 34.8093
r507 43 307 34.8093
r508 36 280 1.43649
r509 36 44 34.8093
r510 35 279 5.52744
r511 34 280 5.52744
r512 34 35 21.7558
r513 32 33 34.8093
r514 32 305 34.8093
r515 25 279 1.43649
r516 25 33 34.8093
r517 24 278 5.52744
r518 23 279 5.52744
r519 23 24 21.7558
r520 21 22 34.8093
r521 21 303 34.8093
r522 14 278 1.43649
r523 14 22 34.8093
r524 13 277 3.89768
r525 12 278 5.52744
r526 12 13 21.7558
r527 10 11 52.214
r528 10 302 52.214
r529 4 277 3.03423
r530 4 11 52.214
r531 1 135 1.43649
r532 1 133 5.52744
r533 1 145 5.52744
.ends

.subckt PM_NAND2D8%IN1 19 22 25 26 28 29 30 33 34 36 42 44 50 52 54 57 58 60 61
+ 62 65 66 68 74 76 82 84 86 89 90 92 93 94 97 98 100 106 108 114 116 118 121
+ 122 124 125 126 129 130 132 138 140 146 148 150 153 154 156 157 158 161 162
+ 164 170 172 178 180 182 185 186 188 189 190 193 194 196 202 204 206 210 212
+ 288 289 290 291 292 293 294 295 296 297 298 299 300 301 302 303 304 305 306
+ 307 308 309 310 311 312
r337 320 322 0.2952
r338 318 320 0.2952
r339 312 318 0.22878
r340 312 314 0.06642
r341 211 212 1.22053
r342 211 311 1.22053
r343 210 311 1.22056
r344 209 210 1.22053
r345 206 212 1.22056
r346 205 209 1.22053
r347 203 204 1.22053
r348 203 310 1.22053
r349 202 310 1.22056
r350 201 202 1.22053
r351 198 206 1.1808
r352 198 204 1.22056
r353 197 205 1.1808
r354 197 201 1.22053
r355 195 196 1.22053
r356 195 309 1.22053
r357 194 309 1.22056
r358 193 194 1.22053
r359 190 198 1.1808
r360 190 196 1.22056
r361 189 197 1.1808
r362 189 193 1.22053
r363 187 188 1.22053
r364 187 308 1.22053
r365 186 308 1.22056
r366 185 186 1.22053
r367 182 190 1.1808
r368 182 188 1.22056
r369 181 189 1.1808
r370 181 185 1.22053
r371 179 180 1.22053
r372 179 307 1.22053
r373 178 307 1.22056
r374 177 178 1.22053
r375 174 182 1.1808
r376 174 180 1.22056
r377 173 181 1.1808
r378 173 177 1.22053
r379 171 172 1.22053
r380 171 306 1.22053
r381 170 306 1.22056
r382 169 170 1.22053
r383 166 174 1.1808
r384 166 172 1.22056
r385 165 173 1.1808
r386 165 169 1.22053
r387 163 164 1.22053
r388 163 305 1.22053
r389 162 305 1.22056
r390 161 162 1.22053
r391 158 166 1.1808
r392 158 164 1.22056
r393 157 165 1.1808
r394 157 161 1.22053
r395 155 156 1.22053
r396 155 304 1.22053
r397 154 304 1.22056
r398 153 154 1.22053
r399 150 158 1.1808
r400 150 156 1.22056
r401 149 157 1.1808
r402 149 153 1.22053
r403 147 148 1.22053
r404 147 303 1.22053
r405 146 303 1.22056
r406 145 146 1.22053
r407 142 150 1.1808
r408 142 148 1.22056
r409 141 149 1.1808
r410 141 145 1.22053
r411 139 140 1.22053
r412 139 302 1.22053
r413 138 302 1.22056
r414 137 138 1.22053
r415 134 142 1.1808
r416 134 140 1.22056
r417 133 141 1.1808
r418 133 137 1.22053
r419 131 132 1.22053
r420 131 301 1.22053
r421 130 301 1.22056
r422 129 130 1.22053
r423 126 134 1.1808
r424 126 132 1.22056
r425 125 133 1.1808
r426 125 129 1.22053
r427 123 124 1.22053
r428 123 300 1.22053
r429 122 300 1.22056
r430 121 122 1.22053
r431 118 126 1.1808
r432 118 124 1.22056
r433 117 125 1.1808
r434 117 121 1.22053
r435 115 116 1.22053
r436 115 299 1.22053
r437 114 299 1.22056
r438 113 114 1.22053
r439 110 118 1.1808
r440 110 116 1.22056
r441 109 117 1.1808
r442 109 113 1.22053
r443 107 108 1.22053
r444 107 298 1.22053
r445 106 298 1.22056
r446 105 106 1.22053
r447 102 110 1.1808
r448 102 108 1.22056
r449 101 109 1.1808
r450 101 105 1.22053
r451 99 100 1.22053
r452 99 297 1.22053
r453 98 297 1.22056
r454 97 98 1.22053
r455 94 102 1.1808
r456 94 100 1.22056
r457 93 101 1.1808
r458 93 97 1.22053
r459 91 92 1.22053
r460 91 296 1.22053
r461 90 296 1.22056
r462 89 90 1.22053
r463 86 94 1.1808
r464 86 92 1.22056
r465 85 93 1.1808
r466 85 89 1.22053
r467 83 84 1.22053
r468 83 295 1.22053
r469 82 295 1.22056
r470 81 82 1.22053
r471 78 86 1.1808
r472 78 84 1.22056
r473 77 85 1.1808
r474 77 81 1.22053
r475 75 76 1.22053
r476 75 294 1.22053
r477 74 294 1.22056
r478 73 74 1.22053
r479 70 78 1.1808
r480 70 76 1.22056
r481 69 77 1.1808
r482 69 73 1.22053
r483 67 68 1.22053
r484 67 293 1.22053
r485 66 293 1.22056
r486 65 66 1.22053
r487 62 70 1.1808
r488 62 68 1.22056
r489 61 69 1.1808
r490 61 65 1.22053
r491 59 60 1.22053
r492 59 292 1.22053
r493 58 292 1.22056
r494 57 58 1.22053
r495 54 62 1.1808
r496 54 60 1.22056
r497 53 61 1.1808
r498 53 57 1.22053
r499 51 52 1.22053
r500 51 291 1.22053
r501 50 291 1.22056
r502 49 50 1.22053
r503 46 54 1.1808
r504 46 52 1.22056
r505 45 53 1.1808
r506 45 49 1.22053
r507 43 44 1.22053
r508 43 290 1.22053
r509 42 290 1.22056
r510 41 42 1.22053
r511 38 46 1.1808
r512 38 44 1.22056
r513 37 45 1.1808
r514 37 41 1.22053
r515 35 36 1.22053
r516 35 289 1.22053
r517 34 289 1.22056
r518 33 34 1.22053
r519 30 38 1.1808
r520 30 36 1.22056
r521 29 37 1.1808
r522 29 33 1.22053
r523 27 28 1.22053
r524 27 288 1.22053
r525 26 288 1.22056
r526 25 26 1.22053
r527 22 30 1.1808
r528 22 28 1.22056
r529 21 29 1.1808
r530 21 25 1.22053
r531 19 22 0.38376
r532 19 20 0.79704
r533 17 21 0.38376
r534 17 18 0.79704
r535 16 213 1.82044
r536 15 16 1.82038
r537 13 18 0.247405
r538 13 15 1.82038
r539 11 12 0.764607
r540 10 322 1
r541 10 11 0.764607
r542 8 320 1
r543 8 10 0.290361
r544 6 318 1
r545 6 8 0.290361
r546 4 314 1
r547 4 6 0.290361
r548 2 20 0.286718
r549 2 12 0.764636
r550 1 213 0.335879
r551 1 4 0.170587
.ends

.subckt PM_NAND2D8%IN2 2 5 6 8 9 10 13 14 16 22 24 30 32 34 37 38 40 41 42 45 46
+ 48 54 56 62 64 66 69 70 72 73 74 77 78 80 86 88 94 96 98 101 102 104 105 106
+ 109 110 112 118 120 126 128 130 133 134 136 137 138 141 142 144 150 152 158
+ 160 162 165 166 168 169 170 173 174 176 182 184 190 192 195 196 288 289 290
+ 291 292 293 294 295 296 297 298 299 300 301 302 303 304 305 306 307 308 309
+ 310 311 312
r337 320 322 0.2952
r338 314 317 0.2952
r339 312 320 0.15498
r340 312 317 0.14022
r341 211 212 0.77735
r342 210 322 1
r343 210 211 0.77735
r344 208 320 1
r345 208 210 0.2952
r346 206 317 1
r347 206 208 0.2952
r348 204 314 1
r349 204 206 0.2952
r350 202 212 0.77738
r351 201 263 0.332026
r352 201 204 0.17712
r353 200 263 1.82044
r354 199 200 1.82038
r355 197 199 1.82038
r356 195 202 0.284958
r357 195 196 0.79704
r358 193 197 0.247405
r359 193 194 0.79704
r360 191 192 1.22053
r361 191 311 1.22053
r362 190 311 1.22056
r363 189 190 1.22053
r364 186 196 0.38376
r365 186 192 1.22056
r366 185 194 0.38376
r367 185 189 1.22053
r368 183 184 1.22053
r369 183 310 1.22053
r370 182 310 1.22056
r371 181 182 1.22053
r372 178 186 1.1808
r373 178 184 1.22056
r374 177 185 1.1808
r375 177 181 1.22053
r376 175 176 1.22053
r377 175 309 1.22053
r378 174 309 1.22056
r379 173 174 1.22053
r380 170 178 1.1808
r381 170 176 1.22056
r382 169 177 1.1808
r383 169 173 1.22053
r384 167 168 1.22053
r385 167 308 1.22053
r386 166 308 1.22056
r387 165 166 1.22053
r388 162 170 1.1808
r389 162 168 1.22056
r390 161 169 1.1808
r391 161 165 1.22053
r392 159 160 1.22053
r393 159 307 1.22053
r394 158 307 1.22056
r395 157 158 1.22053
r396 154 162 1.1808
r397 154 160 1.22056
r398 153 161 1.1808
r399 153 157 1.22053
r400 151 152 1.22053
r401 151 306 1.22053
r402 150 306 1.22056
r403 149 150 1.22053
r404 146 154 1.1808
r405 146 152 1.22056
r406 145 153 1.1808
r407 145 149 1.22053
r408 143 144 1.22053
r409 143 305 1.22053
r410 142 305 1.22056
r411 141 142 1.22053
r412 138 146 1.1808
r413 138 144 1.22056
r414 137 145 1.1808
r415 137 141 1.22053
r416 135 136 1.22053
r417 135 304 1.22053
r418 134 304 1.22056
r419 133 134 1.22053
r420 130 138 1.1808
r421 130 136 1.22056
r422 129 137 1.1808
r423 129 133 1.22053
r424 127 128 1.22053
r425 127 303 1.22053
r426 126 303 1.22056
r427 125 126 1.22053
r428 122 130 1.1808
r429 122 128 1.22056
r430 121 129 1.1808
r431 121 125 1.22053
r432 119 120 1.22053
r433 119 302 1.22053
r434 118 302 1.22056
r435 117 118 1.22053
r436 114 122 1.1808
r437 114 120 1.22056
r438 113 121 1.1808
r439 113 117 1.22053
r440 111 112 1.22053
r441 111 301 1.22053
r442 110 301 1.22056
r443 109 110 1.22053
r444 106 114 1.1808
r445 106 112 1.22056
r446 105 113 1.1808
r447 105 109 1.22053
r448 103 104 1.22053
r449 103 300 1.22053
r450 102 300 1.22056
r451 101 102 1.22053
r452 98 106 1.1808
r453 98 104 1.22056
r454 97 105 1.1808
r455 97 101 1.22053
r456 95 96 1.22053
r457 95 299 1.22053
r458 94 299 1.22056
r459 93 94 1.22053
r460 90 98 1.1808
r461 90 96 1.22056
r462 89 97 1.1808
r463 89 93 1.22053
r464 87 88 1.22053
r465 87 298 1.22053
r466 86 298 1.22056
r467 85 86 1.22053
r468 82 90 1.1808
r469 82 88 1.22056
r470 81 89 1.1808
r471 81 85 1.22053
r472 79 80 1.22053
r473 79 297 1.22053
r474 78 297 1.22056
r475 77 78 1.22053
r476 74 82 1.1808
r477 74 80 1.22056
r478 73 81 1.1808
r479 73 77 1.22053
r480 71 72 1.22053
r481 71 296 1.22053
r482 70 296 1.22056
r483 69 70 1.22053
r484 66 74 1.1808
r485 66 72 1.22056
r486 65 73 1.1808
r487 65 69 1.22053
r488 63 64 1.22053
r489 63 295 1.22053
r490 62 295 1.22056
r491 61 62 1.22053
r492 58 66 1.1808
r493 58 64 1.22056
r494 57 65 1.1808
r495 57 61 1.22053
r496 55 56 1.22053
r497 55 294 1.22053
r498 54 294 1.22056
r499 53 54 1.22053
r500 50 58 1.1808
r501 50 56 1.22056
r502 49 57 1.1808
r503 49 53 1.22053
r504 47 48 1.22053
r505 47 293 1.22053
r506 46 293 1.22056
r507 45 46 1.22053
r508 42 50 1.1808
r509 42 48 1.22056
r510 41 49 1.1808
r511 41 45 1.22053
r512 39 40 1.22053
r513 39 292 1.22053
r514 38 292 1.22056
r515 37 38 1.22053
r516 34 42 1.1808
r517 34 40 1.22056
r518 33 41 1.1808
r519 33 37 1.22053
r520 31 32 1.22053
r521 31 291 1.22053
r522 30 291 1.22056
r523 29 30 1.22053
r524 26 34 1.1808
r525 26 32 1.22056
r526 25 33 1.1808
r527 25 29 1.22053
r528 23 24 1.22053
r529 23 290 1.22053
r530 22 290 1.22056
r531 21 22 1.22053
r532 18 26 1.1808
r533 18 24 1.22056
r534 17 25 1.1808
r535 17 21 1.22053
r536 15 16 1.22053
r537 15 289 1.22053
r538 14 289 1.22056
r539 13 14 1.22053
r540 10 18 1.1808
r541 10 16 1.22056
r542 9 17 1.1808
r543 9 13 1.22053
r544 7 8 1.22053
r545 7 288 1.22053
r546 6 288 1.22056
r547 5 6 1.22053
r548 2 10 1.1808
r549 2 8 1.22056
r550 1 9 1.1808
r551 1 5 1.22053
.ends

