* File: NOR2D8.pex.netlist.pex
* Created: Sat Dec 13 12:35:06 2025
* Program "Calibre xRC"
* Version "v2023.1_18.8"
* Nominal Temperature: 25C
* Circuit Temperature: 25C
* 
.subckt PM_NOR2D8_VSS 1 29 30 33 34 35 36 37 38 39 40 60 61 62 63 66 73 74 75
r20 77 82 0.316286
r21 70 82 1
r22 68 82 1
r23 68 70 0.15269
r24 65 82 1
r25 65 68 0.15269
r26 65 66 0.251086
r27 63 66 1.39652
r28 62 63 1.39652
r29 61 62 1.39652
r30 60 61 1.39652
r31 60 73 1.39652
r32 51 75 3.81065
r33 49 75 6.92783
r34 46 74 5.08901
r35 39 40 6.74431
r36 38 39 6.74431
r37 37 38 6.74431
r38 37 75 6.74431
r39 36 75 6.74431
r40 35 36 6.74431
r41 34 35 6.74431
r42 33 34 6.74431
r43 30 75 6.52675
r44 30 33 6.74431
r45 29 51 3.7716
r46 29 40 6.74431
r47 28 49 10.6647
r48 27 28 10.6647
r49 26 27 10.6647
r50 25 26 10.6647
r51 24 25 10.6647
r52 23 24 10.6647
r53 21 22 7.31427
r54 19 77 1
r55 19 21 7.31427
r56 17 77 1
r57 17 19 2.6107
r58 15 77 1
r59 15 17 2.6107
r60 15 46 3.26338
r61 10 11 7.61451
r62 10 74 7.61451
r63 9 74 7.6146
r64 8 9 7.61451
r65 5 74 6.52675
r66 5 8 7.61451
r67 4 74 3.26338
r68 4 11 7.6146
r69 1 23 10.6647
r70 1 22 7.3144
.ends

.subckt PM_NOR2D8_net11 4 5 10 11 16 17 22 23 28 29 34 35 40 41 46 47 52 53 58
+ 59 64 65 70 71 76 77 82 83 88 89 94 95 119 133 134 135 136 147 148 149 150 151
+ 152 153 154 155 156 157 158 159 160 161 162 163 164
r233 175 177 0.2952
r234 173 175 0.2952
r235 171 173 0.738
r236 169 171 0.2952
r237 166 169 0.2952
r238 145 177 1
r239 136 147 1.61792
r240 135 136 1.61792
r241 134 135 1.61792
r242 133 134 1.61792
r243 132 133 1.61792
r244 131 132 1.61792
r245 128 131 1.61792
r246 127 145 0.156299
r247 126 128 0.252919
r248 126 127 2.03688
r249 125 175 1
r250 122 173 1
r251 122 125 0.2952
r252 120 145 0.104199
r253 120 125 0.2214
r254 119 171 1
r255 117 169 1
r256 117 119 2.81325
r257 115 166 1
r258 115 117 2.81325
r259 113 115 5.62651
r260 112 113 11.253
r261 111 112 11.253
r262 110 111 11.253
r263 109 110 11.253
r264 108 109 11.253
r265 107 108 11.253
r266 106 107 11.253
r267 105 106 11.253
r268 104 105 11.253
r269 104 148 4.92319
r270 101 148 6.32982
r271 100 101 11.253
r272 99 100 11.253
r273 98 99 11.253
r274 97 98 11.253
r275 95 164 20.306
r276 94 95 20.3052
r277 91 119 7.99743
r278 91 94 20.3052
r279 89 163 20.306
r280 88 89 20.3052
r281 85 113 7.99743
r282 85 88 20.3052
r283 83 162 20.306
r284 82 83 20.3052
r285 79 112 7.99743
r286 79 82 20.3052
r287 77 161 20.306
r288 76 77 20.3052
r289 73 111 7.99743
r290 73 76 20.3052
r291 71 160 20.306
r292 70 71 20.3052
r293 67 110 7.99743
r294 67 70 20.3052
r295 65 159 20.306
r296 64 65 20.3052
r297 61 109 7.99743
r298 61 64 20.3052
r299 59 158 20.306
r300 58 59 20.3052
r301 55 108 7.99743
r302 55 58 20.3052
r303 53 157 20.306
r304 52 53 20.3052
r305 49 107 7.99743
r306 49 52 20.3052
r307 47 156 20.306
r308 46 47 20.3052
r309 43 106 7.99743
r310 43 46 20.3052
r311 41 155 20.306
r312 40 41 20.3052
r313 37 105 7.99743
r314 37 40 20.3052
r315 35 154 20.306
r316 34 35 20.3052
r317 31 104 7.99743
r318 31 34 20.3052
r319 29 153 20.306
r320 28 29 20.3052
r321 25 101 7.99743
r322 25 28 20.3052
r323 23 152 20.306
r324 22 23 20.3052
r325 19 100 7.99743
r326 19 22 20.3052
r327 17 151 20.306
r328 16 17 20.3052
r329 13 99 7.99743
r330 13 16 20.3052
r331 11 150 20.306
r332 10 11 20.3052
r333 7 98 7.99743
r334 7 10 20.3052
r335 5 149 20.306
r336 4 5 20.3052
r337 1 97 7.99743
r338 1 4 20.3052
.ends

.subckt PM_NOR2D8_net10 1 6 10 11 15 20 24 25 29 34 38 39 43 48 52 53 57 62 66
+ 67 71 76 80 81 85 90 94 95 99 104 108 109 113 118 122 123 127 132 136 137 141
+ 146 150 151 155 160 164 165 169 174 178 179 183 188 192 193 197 202 206 207
+ 211 216 220 221 225 230 234 235 254 255 256 257 258 259 260 261 262 263 264
+ 265 266 267 268 269 270 271 272 273 274 275 276 277 278 279 280 281 282 283
+ 284 285 286 287
r418 235 287 20.306
r419 234 235 20.3052
r420 231 253 6.97267
r421 231 234 20.3052
r422 229 230 20.3052
r423 229 286 20.3052
r424 225 253 6.97267
r425 225 230 20.306
r426 224 252 4.89506
r427 223 253 0.353334
r428 223 224 16.3169
r429 221 285 20.306
r430 220 221 20.3052
r431 217 252 8.70233
r432 217 220 20.3052
r433 215 216 20.3052
r434 215 284 20.3052
r435 211 252 8.70233
r436 211 216 20.306
r437 210 251 4.89506
r438 209 252 4.89506
r439 209 210 16.3169
r440 207 283 20.306
r441 206 207 20.3052
r442 203 251 8.70233
r443 203 206 20.3052
r444 201 202 20.3052
r445 201 282 20.3052
r446 197 251 8.70233
r447 197 202 20.306
r448 196 250 4.89506
r449 195 251 4.89506
r450 195 196 16.3169
r451 193 281 20.306
r452 192 193 20.3052
r453 189 250 8.70233
r454 189 192 20.3052
r455 187 188 20.3052
r456 187 280 20.3052
r457 183 250 8.70233
r458 183 188 20.306
r459 182 249 4.89506
r460 181 250 4.89506
r461 181 182 16.3169
r462 179 279 20.306
r463 178 179 20.3052
r464 175 249 8.70233
r465 175 178 20.3052
r466 173 174 20.3052
r467 173 278 20.3052
r468 169 249 8.70233
r469 169 174 20.306
r470 168 248 4.89506
r471 167 249 4.89506
r472 167 168 16.3169
r473 165 277 20.306
r474 164 165 20.3052
r475 161 248 8.70233
r476 161 164 20.3052
r477 159 160 20.3052
r478 159 276 20.3052
r479 155 248 8.70233
r480 155 160 20.306
r481 154 247 4.89506
r482 153 248 4.89506
r483 153 154 16.3169
r484 151 275 20.306
r485 150 151 20.3052
r486 147 247 8.70233
r487 147 150 20.3052
r488 145 146 20.3052
r489 145 274 20.3052
r490 141 247 8.70233
r491 141 146 20.306
r492 140 246 4.89506
r493 139 247 4.89506
r494 139 140 16.3169
r495 137 273 20.306
r496 136 137 20.3052
r497 133 246 8.70233
r498 133 136 20.3052
r499 131 132 20.3052
r500 131 272 20.3052
r501 127 246 8.70233
r502 127 132 20.306
r503 126 245 4.89506
r504 125 246 4.89506
r505 125 126 16.3169
r506 123 271 20.306
r507 122 123 20.3052
r508 119 245 8.70233
r509 119 122 20.3052
r510 117 118 20.3052
r511 117 270 20.3052
r512 113 245 8.70233
r513 113 118 20.306
r514 112 244 4.89506
r515 111 245 4.89506
r516 111 112 16.3169
r517 109 269 20.306
r518 108 109 20.3052
r519 105 244 8.70233
r520 105 108 20.3052
r521 103 104 20.3052
r522 103 268 20.3052
r523 99 244 8.70233
r524 99 104 20.306
r525 98 243 4.89506
r526 97 244 4.89506
r527 97 98 16.3169
r528 95 267 20.306
r529 94 95 20.3052
r530 91 243 8.70233
r531 91 94 20.3052
r532 89 90 20.3052
r533 89 266 20.3052
r534 85 243 8.70233
r535 85 90 20.306
r536 84 242 4.89506
r537 83 243 4.89506
r538 83 84 16.3169
r539 81 265 20.306
r540 80 81 20.3052
r541 77 242 8.70233
r542 77 80 20.3052
r543 75 76 20.3052
r544 75 264 20.3052
r545 71 242 8.70233
r546 71 76 20.306
r547 70 241 4.89506
r548 69 242 4.89506
r549 69 70 16.3169
r550 67 263 20.306
r551 66 67 20.3052
r552 63 241 8.70233
r553 63 66 20.3052
r554 61 62 20.3052
r555 61 262 20.3052
r556 57 241 8.70233
r557 57 62 20.306
r558 56 240 4.89506
r559 55 241 4.89506
r560 55 56 16.3169
r561 53 261 20.306
r562 52 53 20.3052
r563 49 240 8.70233
r564 49 52 20.3052
r565 47 48 20.3052
r566 47 260 20.3052
r567 43 240 8.70233
r568 43 48 20.306
r569 42 239 4.89506
r570 41 240 4.89506
r571 41 42 16.3169
r572 39 259 20.306
r573 38 39 20.3052
r574 35 239 8.70233
r575 35 38 20.3052
r576 33 34 20.3052
r577 33 258 20.3052
r578 29 239 8.70233
r579 29 34 20.306
r580 28 238 4.89506
r581 27 239 4.89506
r582 27 28 16.3169
r583 25 257 20.306
r584 24 25 20.3052
r585 21 238 8.70233
r586 21 24 20.3052
r587 19 20 20.3052
r588 19 256 20.3052
r589 15 238 8.70233
r590 15 20 20.306
r591 14 237 0.353334
r592 13 238 4.89506
r593 13 14 16.3169
r594 11 255 20.306
r595 10 11 20.3052
r596 7 237 6.97267
r597 7 10 20.3052
r598 5 6 20.3052
r599 5 254 20.3052
r600 1 237 6.97267
r601 1 6 20.306
.ends

.subckt PM_NOR2D8_OUT 1 5 6 11 12 17 18 23 24 29 30 35 36 41 42 47 48 53 54 59
+ 60 65 66 71 72 77 78 83 84 89 90 95 96 115 117 118 119 120 121 122 123 124 125
+ 126 127 128 129 130 131 132 133
r213 115 116 7.87547
r214 114 115 7.87547
r215 113 114 7.87547
r216 112 113 7.87547
r217 111 112 7.87547
r218 110 111 7.87547
r219 109 110 7.87547
r220 105 120 5.90661
r221 104 105 7.87547
r222 103 104 7.87547
r223 102 103 7.87547
r224 101 102 7.87547
r225 100 101 7.87547
r226 99 100 7.87547
r227 98 99 7.87547
r228 96 133 20.306
r229 95 96 20.3052
r230 92 116 10.4754
r231 92 95 20.3052
r232 90 132 20.306
r233 89 90 20.3052
r234 86 115 10.4754
r235 86 89 20.3052
r236 84 131 20.306
r237 83 84 20.3052
r238 80 114 10.4754
r239 80 83 20.3052
r240 78 130 20.306
r241 77 78 20.3052
r242 74 113 10.4754
r243 74 77 20.3052
r244 72 129 20.306
r245 71 72 20.3052
r246 68 112 10.4754
r247 68 71 20.3052
r248 66 128 20.306
r249 65 66 20.3052
r250 62 111 10.4754
r251 62 65 20.3052
r252 60 127 20.306
r253 59 60 20.3052
r254 56 110 10.4754
r255 56 59 20.3052
r256 54 126 20.306
r257 53 54 20.3052
r258 50 109 10.4754
r259 50 53 20.3052
r260 48 125 20.306
r261 47 48 20.3052
r262 44 105 10.4754
r263 44 47 20.3052
r264 42 124 20.306
r265 41 42 20.3052
r266 38 104 10.4754
r267 38 41 20.3052
r268 36 123 20.306
r269 35 36 20.3052
r270 32 103 10.4754
r271 32 35 20.3052
r272 30 122 20.306
r273 29 30 20.3052
r274 26 102 10.4754
r275 26 29 20.3052
r276 24 121 20.306
r277 23 24 20.3052
r278 20 101 10.4754
r279 20 23 20.3052
r280 18 119 20.306
r281 17 18 20.3052
r282 14 100 10.4754
r283 14 17 20.3052
r284 12 118 20.306
r285 11 12 20.3052
r286 8 99 10.4754
r287 8 11 20.3052
r288 6 117 20.306
r289 5 6 20.3052
r290 2 98 10.4754
r291 2 5 20.3052
r292 1 109 0.954901
r293 1 120 1.01397
.ends

.subckt PM_NOR2D8_VDD 1 6 11 14 19 22 27 30 35 38 43 46 51 54 59 62 67 70 75 78
+ 83 86 91 94 99 102 107 110 115 118 123 126 131 135 140 143 148 151 156 159 164
+ 167 172 175 180 183 188 191 196 199 204 207 212 215 220 223 228 231 236 239
+ 244 247 252 255 260 295 296 297 298 299 300 301 302 303 304 305 306 307 308
+ 309 310 311 312 313 314 315 316 317 318 319 320 321 322 323 324 325 326
r416 259 260 20.3052
r417 259 326 20.3052
r418 255 294 1.43649
r419 255 260 20.306
r420 254 293 5.52744
r421 253 294 5.52744
r422 253 254 21.7558
r423 251 252 20.3052
r424 251 325 20.3052
r425 247 293 1.43649
r426 247 252 20.306
r427 246 292 5.52744
r428 245 293 5.52744
r429 245 246 21.7558
r430 243 244 20.3052
r431 243 324 20.3052
r432 239 292 1.43649
r433 239 244 20.306
r434 238 291 5.52744
r435 237 292 5.52744
r436 237 238 21.7558
r437 235 236 20.3052
r438 235 323 20.3052
r439 231 291 1.43649
r440 231 236 20.306
r441 230 290 5.52744
r442 229 291 5.52744
r443 229 230 21.7558
r444 227 228 20.3052
r445 227 322 20.3052
r446 223 290 1.43649
r447 223 228 20.306
r448 222 289 5.52744
r449 221 290 5.52744
r450 221 222 21.7558
r451 219 220 20.3052
r452 219 321 20.3052
r453 215 289 1.43649
r454 215 220 20.306
r455 214 288 5.52744
r456 213 289 5.52744
r457 213 214 21.7558
r458 211 212 20.3052
r459 211 320 20.3052
r460 207 288 1.43649
r461 207 212 20.306
r462 206 287 5.52744
r463 205 288 5.52744
r464 205 206 21.7558
r465 203 204 20.3052
r466 203 319 20.3052
r467 199 287 1.43649
r468 199 204 20.306
r469 198 286 5.52744
r470 197 287 5.52744
r471 197 198 21.7558
r472 195 196 20.3052
r473 195 318 20.3052
r474 191 286 1.43649
r475 191 196 20.306
r476 190 285 5.52744
r477 189 286 5.52744
r478 189 190 21.7558
r479 187 188 20.3052
r480 187 317 20.3052
r481 183 285 1.43649
r482 183 188 20.306
r483 182 284 5.52744
r484 181 285 5.52744
r485 181 182 21.7558
r486 179 180 20.3052
r487 179 316 20.3052
r488 175 284 1.43649
r489 175 180 20.306
r490 174 283 5.52744
r491 173 284 5.52744
r492 173 174 21.7558
r493 171 172 20.3052
r494 171 315 20.3052
r495 167 283 1.43649
r496 167 172 20.306
r497 166 282 5.52744
r498 165 283 5.52744
r499 165 166 21.7558
r500 163 164 20.3052
r501 163 314 20.3052
r502 159 282 1.43649
r503 159 164 20.306
r504 158 281 5.52744
r505 157 282 5.52744
r506 157 158 21.7558
r507 155 156 20.3052
r508 155 313 20.3052
r509 151 281 1.43649
r510 151 156 20.306
r511 150 280 5.52744
r512 149 281 5.52744
r513 149 150 21.7558
r514 147 148 20.3052
r515 147 312 20.3052
r516 143 280 1.43649
r517 143 148 20.306
r518 142 279 5.52744
r519 141 280 5.52744
r520 141 142 21.7558
r521 139 140 20.3052
r522 139 311 20.3052
r523 135 279 1.43649
r524 135 140 20.306
r525 133 278 5.52744
r526 132 279 5.52744
r527 130 131 20.3052
r528 130 310 20.3052
r529 126 278 1.43649
r530 126 131 20.306
r531 125 277 5.52744
r532 124 278 5.52744
r533 124 125 21.7558
r534 122 123 20.3052
r535 122 309 20.3052
r536 118 277 1.43649
r537 118 123 20.306
r538 117 276 5.52744
r539 116 277 5.52744
r540 116 117 21.7558
r541 114 115 20.3052
r542 114 308 20.3052
r543 110 276 1.43649
r544 110 115 20.306
r545 109 275 5.52744
r546 108 276 5.52744
r547 108 109 21.7558
r548 106 107 20.3052
r549 106 307 20.3052
r550 102 275 1.43649
r551 102 107 20.306
r552 101 274 5.52744
r553 100 275 5.52744
r554 100 101 21.7558
r555 98 99 20.3052
r556 98 306 20.3052
r557 94 274 1.43649
r558 94 99 20.306
r559 93 273 5.52744
r560 92 274 5.52744
r561 92 93 21.7558
r562 90 91 20.3052
r563 90 305 20.3052
r564 86 273 1.43649
r565 86 91 20.306
r566 85 272 5.52744
r567 84 273 5.52744
r568 84 85 21.7558
r569 82 83 20.3052
r570 82 304 20.3052
r571 78 272 1.43649
r572 78 83 20.306
r573 77 271 5.52744
r574 76 272 5.52744
r575 76 77 21.7558
r576 74 75 20.3052
r577 74 303 20.3052
r578 70 271 1.43649
r579 70 75 20.306
r580 69 270 5.52744
r581 68 271 5.52744
r582 68 69 21.7558
r583 66 67 20.3052
r584 66 302 20.3052
r585 62 270 1.43649
r586 62 67 20.306
r587 61 269 5.52744
r588 60 270 5.52744
r589 60 61 21.7558
r590 58 59 20.3052
r591 58 301 20.3052
r592 54 269 1.43649
r593 54 59 20.306
r594 53 268 5.52744
r595 52 269 5.52744
r596 52 53 21.7558
r597 50 51 20.3052
r598 50 300 20.3052
r599 46 268 1.43649
r600 46 51 20.306
r601 45 267 5.52744
r602 44 268 5.52744
r603 44 45 21.7558
r604 42 43 20.3052
r605 42 299 20.3052
r606 38 267 1.43649
r607 38 43 20.306
r608 37 266 5.52744
r609 36 267 5.52744
r610 36 37 21.7558
r611 34 35 20.3052
r612 34 298 20.3052
r613 30 266 1.43649
r614 30 35 20.306
r615 29 265 5.52744
r616 28 266 5.52744
r617 28 29 21.7558
r618 26 27 20.3052
r619 26 297 20.3052
r620 22 265 1.43649
r621 22 27 20.306
r622 21 264 5.52744
r623 20 265 5.52744
r624 20 21 21.7558
r625 18 19 20.3052
r626 18 296 20.3052
r627 14 264 1.43649
r628 14 19 20.306
r629 13 263 5.52744
r630 12 264 5.52744
r631 12 13 21.7558
r632 10 11 20.3052
r633 10 295 20.3052
r634 6 263 1.43649
r635 6 11 20.306
r636 1 132 23.5833
r637 1 133 28.6307
.ends

.subckt PM_NOR2D8_net12 1 6 10 11 15 20 24 25 29 34 38 39 43 48 52 53 57 62 66
+ 67 71 76 80 81 85 90 94 95 99 104 108 109 113 118 122 123 127 132 136 137 141
+ 146 150 151 155 160 164 165 169 174 178 179 183 188 192 193 197 202 206 207
+ 211 216 220 221 225 230 234 235 254 255 256 257 258 259 260 261 262 263 264
+ 265 266 267 268 269 270 271 272 273 274 275 276 277 278 279 280 281 282 283
+ 284 285 286 287
r418 235 287 20.306
r419 234 235 20.3052
r420 231 253 6.97267
r421 231 234 20.3052
r422 229 230 20.3052
r423 229 286 20.3052
r424 225 253 6.97267
r425 225 230 20.306
r426 224 252 4.89506
r427 223 253 0.353334
r428 223 224 16.3169
r429 221 285 20.306
r430 220 221 20.3052
r431 217 252 8.70233
r432 217 220 20.3052
r433 215 216 20.3052
r434 215 284 20.3052
r435 211 252 8.70233
r436 211 216 20.306
r437 210 251 4.89506
r438 209 252 4.89506
r439 209 210 16.3169
r440 207 283 20.306
r441 206 207 20.3052
r442 203 251 8.70233
r443 203 206 20.3052
r444 201 202 20.3052
r445 201 282 20.3052
r446 197 251 8.70233
r447 197 202 20.306
r448 196 250 4.89506
r449 195 251 4.89506
r450 195 196 16.3169
r451 193 281 20.306
r452 192 193 20.3052
r453 189 250 8.70233
r454 189 192 20.3052
r455 187 188 20.3052
r456 187 280 20.3052
r457 183 250 8.70233
r458 183 188 20.306
r459 182 249 4.89506
r460 181 250 4.89506
r461 181 182 16.3169
r462 179 279 20.306
r463 178 179 20.3052
r464 175 249 8.70233
r465 175 178 20.3052
r466 173 174 20.3052
r467 173 278 20.3052
r468 169 249 8.70233
r469 169 174 20.306
r470 168 248 4.89506
r471 167 249 4.89506
r472 167 168 16.3169
r473 165 277 20.306
r474 164 165 20.3052
r475 161 248 8.70233
r476 161 164 20.3052
r477 159 160 20.3052
r478 159 276 20.3052
r479 155 248 8.70233
r480 155 160 20.306
r481 154 247 4.89506
r482 153 248 4.89506
r483 153 154 16.3169
r484 151 275 20.306
r485 150 151 20.3052
r486 147 247 8.70233
r487 147 150 20.3052
r488 145 146 20.3052
r489 145 274 20.3052
r490 141 247 8.70233
r491 141 146 20.306
r492 140 246 4.89506
r493 139 247 4.89506
r494 139 140 16.3169
r495 137 273 20.306
r496 136 137 20.3052
r497 133 246 8.70233
r498 133 136 20.3052
r499 131 132 20.3052
r500 131 272 20.3052
r501 127 246 8.70233
r502 127 132 20.306
r503 126 245 4.89506
r504 125 246 4.89506
r505 125 126 16.3169
r506 123 271 20.306
r507 122 123 20.3052
r508 119 245 8.70233
r509 119 122 20.3052
r510 117 118 20.3052
r511 117 270 20.3052
r512 113 245 8.70233
r513 113 118 20.306
r514 112 244 4.89506
r515 111 245 4.89506
r516 111 112 16.3169
r517 109 269 20.306
r518 108 109 20.3052
r519 105 244 8.70233
r520 105 108 20.3052
r521 103 104 20.3052
r522 103 268 20.3052
r523 99 244 8.70233
r524 99 104 20.306
r525 98 243 4.89506
r526 97 244 4.89506
r527 97 98 16.3169
r528 95 267 20.306
r529 94 95 20.3052
r530 91 243 8.70233
r531 91 94 20.3052
r532 89 90 20.3052
r533 89 266 20.3052
r534 85 243 8.70233
r535 85 90 20.306
r536 84 242 4.89506
r537 83 243 4.89506
r538 83 84 16.3169
r539 81 265 20.306
r540 80 81 20.3052
r541 77 242 8.70233
r542 77 80 20.3052
r543 75 76 20.3052
r544 75 264 20.3052
r545 71 242 8.70233
r546 71 76 20.306
r547 70 241 4.89506
r548 69 242 4.89506
r549 69 70 16.3169
r550 67 263 20.306
r551 66 67 20.3052
r552 63 241 8.70233
r553 63 66 20.3052
r554 61 62 20.3052
r555 61 262 20.3052
r556 57 241 8.70233
r557 57 62 20.306
r558 56 240 4.89506
r559 55 241 4.89506
r560 55 56 16.3169
r561 53 261 20.306
r562 52 53 20.3052
r563 49 240 8.70233
r564 49 52 20.3052
r565 47 48 20.3052
r566 47 260 20.3052
r567 43 240 8.70233
r568 43 48 20.306
r569 42 239 4.89506
r570 41 240 4.89506
r571 41 42 16.3169
r572 39 259 20.306
r573 38 39 20.3052
r574 35 239 8.70233
r575 35 38 20.3052
r576 33 34 20.3052
r577 33 258 20.3052
r578 29 239 8.70233
r579 29 34 20.306
r580 28 238 4.89506
r581 27 239 4.89506
r582 27 28 16.3169
r583 25 257 20.306
r584 24 25 20.3052
r585 21 238 8.70233
r586 21 24 20.3052
r587 19 20 20.3052
r588 19 256 20.3052
r589 15 238 8.70233
r590 15 20 20.306
r591 14 237 0.353334
r592 13 238 4.89506
r593 13 14 16.3169
r594 11 255 20.306
r595 10 11 20.3052
r596 7 237 6.97267
r597 7 10 20.3052
r598 5 6 20.3052
r599 5 254 20.3052
r600 1 237 6.97267
r601 1 6 20.306
.ends

.subckt PM_NOR2D8_IN2 1 9 12 15 16 18 20 23 24 26 27 28 31 32 34 40 42 48 50 52
+ 55 56 58 59 60 63 64 66 72 74 80 82 84 87 88 90 91 92 95 96 98 104 106 112 114
+ 116 119 120 122 123 124 127 128 130 136 138 144 146 148 151 152 154 155 156
+ 159 160 162 168 170 176 178 180 183 184 186 187 188 191 192 194 200 202 208
+ 210 212 215 216 218 219 220 223 224 226 232 234 240 242 244 247 248 250 251
+ 252 255 256 258 264 266 272 275 276 278 280 283 284 286 287 288 291 292 294
+ 300 302 308 310 312 315 316 318 319 320 323 324 326 332 334 340 342 344 347
+ 348 350 351 352 355 356 358 364 366 372 374 376 379 380 382 383 384 387 388
+ 390 396 398 404 406 408 411 412 414 415 416 419 420 422 428 430 436 438 440
+ 443 444 446 447 448 451 452 454 460 462 468 470 472 475 476 478 479 480 483
+ 484 486 492 494 500 502 504 507 508 510 511 512 515 516 518 524 526 721 722
+ 723 724 725 726 727 728 729 730 731 732 733 734 735 736 737 738 739 740 741
+ 742 743 744 745 746 747 748 749 750 751 752 753 754 755 756 757 758 759 760
+ 761 762 763 764 765 766 767 768 769 770 771 772 773 774 775 776 777 778 779
+ 780 781 782 783 784
r826 525 526 0.62445
r827 525 784 0.62445
r828 524 784 0.624484
r829 523 524 0.62445
r830 520 526 0.624484
r831 519 523 0.62445
r832 517 518 0.62445
r833 517 783 0.62445
r834 516 783 0.624484
r835 515 516 0.62445
r836 512 520 0.8856
r837 512 518 0.624484
r838 511 519 0.8856
r839 511 515 0.62445
r840 509 510 0.62445
r841 509 782 0.62445
r842 508 782 0.624484
r843 507 508 0.62445
r844 504 512 0.8856
r845 504 510 0.624484
r846 503 511 0.8856
r847 503 507 0.62445
r848 501 502 0.62445
r849 501 781 0.62445
r850 500 781 0.624484
r851 499 500 0.62445
r852 496 504 0.8856
r853 496 502 0.624484
r854 495 503 0.8856
r855 495 499 0.62445
r856 493 494 0.62445
r857 493 780 0.62445
r858 492 780 0.624484
r859 491 492 0.62445
r860 488 496 0.8856
r861 488 494 0.624484
r862 487 495 0.8856
r863 487 491 0.62445
r864 485 486 0.62445
r865 485 779 0.62445
r866 484 779 0.624484
r867 483 484 0.62445
r868 480 488 0.8856
r869 480 486 0.624484
r870 479 487 0.8856
r871 479 483 0.62445
r872 477 478 0.62445
r873 477 778 0.62445
r874 476 778 0.624484
r875 475 476 0.62445
r876 472 480 0.8856
r877 472 478 0.624484
r878 471 479 0.8856
r879 471 475 0.62445
r880 469 470 0.62445
r881 469 777 0.62445
r882 468 777 0.624484
r883 467 468 0.62445
r884 464 472 0.8856
r885 464 470 0.624484
r886 463 471 0.8856
r887 463 467 0.62445
r888 461 462 0.62445
r889 461 776 0.62445
r890 460 776 0.624484
r891 459 460 0.62445
r892 456 464 0.8856
r893 456 462 0.624484
r894 455 463 0.8856
r895 455 459 0.62445
r896 453 454 0.62445
r897 453 775 0.62445
r898 452 775 0.624484
r899 451 452 0.62445
r900 448 456 0.8856
r901 448 454 0.624484
r902 447 455 0.8856
r903 447 451 0.62445
r904 445 446 0.62445
r905 445 774 0.62445
r906 444 774 0.624484
r907 443 444 0.62445
r908 440 448 0.8856
r909 440 446 0.624484
r910 439 447 0.8856
r911 439 443 0.62445
r912 437 438 0.62445
r913 437 773 0.62445
r914 436 773 0.624484
r915 435 436 0.62445
r916 432 440 0.8856
r917 432 438 0.624484
r918 431 439 0.8856
r919 431 435 0.62445
r920 429 430 0.62445
r921 429 772 0.62445
r922 428 772 0.624484
r923 427 428 0.62445
r924 424 432 0.8856
r925 424 430 0.624484
r926 423 431 0.8856
r927 423 427 0.62445
r928 421 422 0.62445
r929 421 771 0.62445
r930 420 771 0.624484
r931 419 420 0.62445
r932 416 424 0.8856
r933 416 422 0.624484
r934 415 423 0.8856
r935 415 419 0.62445
r936 413 414 0.62445
r937 413 770 0.62445
r938 412 770 0.624484
r939 411 412 0.62445
r940 408 416 0.8856
r941 408 414 0.624484
r942 407 415 0.8856
r943 407 411 0.62445
r944 405 406 0.62445
r945 405 769 0.62445
r946 404 769 0.624484
r947 403 404 0.62445
r948 400 408 0.8856
r949 400 406 0.624484
r950 399 407 0.8856
r951 399 403 0.62445
r952 397 398 0.62445
r953 397 768 0.62445
r954 396 768 0.624484
r955 395 396 0.62445
r956 392 400 0.8856
r957 392 398 0.624484
r958 391 399 0.8856
r959 391 395 0.62445
r960 389 390 0.62445
r961 389 767 0.62445
r962 388 767 0.624484
r963 387 388 0.62445
r964 384 392 0.8856
r965 384 390 0.624484
r966 383 391 0.8856
r967 383 387 0.62445
r968 381 382 0.62445
r969 381 766 0.62445
r970 380 766 0.624484
r971 379 380 0.62445
r972 376 384 0.8856
r973 376 382 0.624484
r974 375 383 0.8856
r975 375 379 0.62445
r976 373 374 0.62445
r977 373 765 0.62445
r978 372 765 0.624484
r979 371 372 0.62445
r980 368 376 0.8856
r981 368 374 0.624484
r982 367 375 0.8856
r983 367 371 0.62445
r984 365 366 0.62445
r985 365 764 0.62445
r986 364 764 0.624484
r987 363 364 0.62445
r988 360 368 0.8856
r989 360 366 0.624484
r990 359 367 0.8856
r991 359 363 0.62445
r992 357 358 0.62445
r993 357 763 0.62445
r994 356 763 0.624484
r995 355 356 0.62445
r996 352 360 0.8856
r997 352 358 0.624484
r998 351 359 0.8856
r999 351 355 0.62445
r1000 349 350 0.62445
r1001 349 762 0.62445
r1002 348 762 0.624484
r1003 347 348 0.62445
r1004 344 352 0.8856
r1005 344 350 0.624484
r1006 343 351 0.8856
r1007 343 347 0.62445
r1008 341 342 0.62445
r1009 341 761 0.62445
r1010 340 761 0.624484
r1011 339 340 0.62445
r1012 336 344 0.8856
r1013 336 342 0.624484
r1014 335 343 0.8856
r1015 335 339 0.62445
r1016 333 334 0.62445
r1017 333 760 0.62445
r1018 332 760 0.624484
r1019 331 332 0.62445
r1020 328 336 0.8856
r1021 328 334 0.624484
r1022 327 335 0.8856
r1023 327 331 0.62445
r1024 325 326 0.62445
r1025 325 759 0.62445
r1026 324 759 0.624484
r1027 323 324 0.62445
r1028 320 328 0.8856
r1029 320 326 0.624484
r1030 319 327 0.8856
r1031 319 323 0.62445
r1032 317 318 0.62445
r1033 317 758 0.62445
r1034 316 758 0.624484
r1035 315 316 0.62445
r1036 312 320 0.8856
r1037 312 318 0.624484
r1038 311 319 0.8856
r1039 311 315 0.62445
r1040 309 310 0.62445
r1041 309 757 0.62445
r1042 308 757 0.624484
r1043 307 308 0.62445
r1044 304 312 0.8856
r1045 304 310 0.624484
r1046 303 311 0.8856
r1047 303 307 0.62445
r1048 301 302 0.62445
r1049 301 756 0.62445
r1050 300 756 0.624484
r1051 299 300 0.62445
r1052 296 304 0.8856
r1053 296 302 0.624484
r1054 295 303 0.8856
r1055 295 299 0.62445
r1056 293 294 0.62445
r1057 293 755 0.62445
r1058 292 755 0.624484
r1059 291 292 0.62445
r1060 288 296 0.8856
r1061 288 294 0.624484
r1062 287 295 0.8856
r1063 287 291 0.62445
r1064 285 286 0.62445
r1065 285 754 0.62445
r1066 284 754 0.624484
r1067 283 284 0.62445
r1068 280 288 0.8856
r1069 280 286 0.624484
r1070 279 287 0.8856
r1071 279 283 0.62445
r1072 277 278 0.62445
r1073 277 753 0.62445
r1074 276 753 0.624484
r1075 275 276 0.62445
r1076 272 280 0.8856
r1077 272 278 0.624484
r1078 271 279 0.8856
r1079 271 275 0.62445
r1080 269 272 0.28782
r1081 269 270 1.85976
r1082 267 271 0.28782
r1083 267 268 1.85976
r1084 265 266 0.62445
r1085 265 752 0.62445
r1086 264 752 0.624484
r1087 263 264 0.62445
r1088 260 270 0.28782
r1089 260 266 0.624484
r1090 259 268 0.28782
r1091 259 263 0.62445
r1092 257 258 0.62445
r1093 257 751 0.62445
r1094 256 751 0.624484
r1095 255 256 0.62445
r1096 252 260 0.8856
r1097 252 258 0.624484
r1098 251 259 0.8856
r1099 251 255 0.62445
r1100 249 250 0.62445
r1101 249 750 0.62445
r1102 248 750 0.624484
r1103 247 248 0.62445
r1104 244 252 0.8856
r1105 244 250 0.624484
r1106 243 251 0.8856
r1107 243 247 0.62445
r1108 241 242 0.62445
r1109 241 749 0.62445
r1110 240 749 0.624484
r1111 239 240 0.62445
r1112 236 244 0.8856
r1113 236 242 0.624484
r1114 235 243 0.8856
r1115 235 239 0.62445
r1116 233 234 0.62445
r1117 233 748 0.62445
r1118 232 748 0.624484
r1119 231 232 0.62445
r1120 228 236 0.8856
r1121 228 234 0.624484
r1122 227 235 0.8856
r1123 227 231 0.62445
r1124 225 226 0.62445
r1125 225 747 0.62445
r1126 224 747 0.624484
r1127 223 224 0.62445
r1128 220 228 0.8856
r1129 220 226 0.624484
r1130 219 227 0.8856
r1131 219 223 0.62445
r1132 217 218 0.62445
r1133 217 746 0.62445
r1134 216 746 0.624484
r1135 215 216 0.62445
r1136 212 220 0.8856
r1137 212 218 0.624484
r1138 211 219 0.8856
r1139 211 215 0.62445
r1140 209 210 0.62445
r1141 209 745 0.62445
r1142 208 745 0.624484
r1143 207 208 0.62445
r1144 204 212 0.8856
r1145 204 210 0.624484
r1146 203 211 0.8856
r1147 203 207 0.62445
r1148 201 202 0.62445
r1149 201 744 0.62445
r1150 200 744 0.624484
r1151 199 200 0.62445
r1152 196 204 0.8856
r1153 196 202 0.624484
r1154 195 203 0.8856
r1155 195 199 0.62445
r1156 193 194 0.62445
r1157 193 743 0.62445
r1158 192 743 0.624484
r1159 191 192 0.62445
r1160 188 196 0.8856
r1161 188 194 0.624484
r1162 187 195 0.8856
r1163 187 191 0.62445
r1164 185 186 0.62445
r1165 185 742 0.62445
r1166 184 742 0.624484
r1167 183 184 0.62445
r1168 180 188 0.8856
r1169 180 186 0.624484
r1170 179 187 0.8856
r1171 179 183 0.62445
r1172 177 178 0.62445
r1173 177 741 0.62445
r1174 176 741 0.624484
r1175 175 176 0.62445
r1176 172 180 0.8856
r1177 172 178 0.624484
r1178 171 179 0.8856
r1179 171 175 0.62445
r1180 169 170 0.62445
r1181 169 740 0.62445
r1182 168 740 0.624484
r1183 167 168 0.62445
r1184 164 172 0.8856
r1185 164 170 0.624484
r1186 163 171 0.8856
r1187 163 167 0.62445
r1188 161 162 0.62445
r1189 161 739 0.62445
r1190 160 739 0.624484
r1191 159 160 0.62445
r1192 156 164 0.8856
r1193 156 162 0.624484
r1194 155 163 0.8856
r1195 155 159 0.62445
r1196 153 154 0.62445
r1197 153 738 0.62445
r1198 152 738 0.624484
r1199 151 152 0.62445
r1200 148 156 0.8856
r1201 148 154 0.624484
r1202 147 155 0.8856
r1203 147 151 0.62445
r1204 145 146 0.62445
r1205 145 737 0.62445
r1206 144 737 0.624484
r1207 143 144 0.62445
r1208 140 148 0.8856
r1209 140 146 0.624484
r1210 139 147 0.8856
r1211 139 143 0.62445
r1212 137 138 0.62445
r1213 137 736 0.62445
r1214 136 736 0.624484
r1215 135 136 0.62445
r1216 132 140 0.8856
r1217 132 138 0.624484
r1218 131 139 0.8856
r1219 131 135 0.62445
r1220 129 130 0.62445
r1221 129 735 0.62445
r1222 128 735 0.624484
r1223 127 128 0.62445
r1224 124 132 0.8856
r1225 124 130 0.624484
r1226 123 131 0.8856
r1227 123 127 0.62445
r1228 121 122 0.62445
r1229 121 734 0.62445
r1230 120 734 0.624484
r1231 119 120 0.62445
r1232 116 124 0.8856
r1233 116 122 0.624484
r1234 115 123 0.8856
r1235 115 119 0.62445
r1236 113 114 0.62445
r1237 113 733 0.62445
r1238 112 733 0.624484
r1239 111 112 0.62445
r1240 108 116 0.8856
r1241 108 114 0.624484
r1242 107 115 0.8856
r1243 107 111 0.62445
r1244 105 106 0.62445
r1245 105 732 0.62445
r1246 104 732 0.624484
r1247 103 104 0.62445
r1248 100 108 0.8856
r1249 100 106 0.624484
r1250 99 107 0.8856
r1251 99 103 0.62445
r1252 97 98 0.62445
r1253 97 731 0.62445
r1254 96 731 0.624484
r1255 95 96 0.62445
r1256 92 100 0.8856
r1257 92 98 0.624484
r1258 91 99 0.8856
r1259 91 95 0.62445
r1260 89 90 0.62445
r1261 89 730 0.62445
r1262 88 730 0.624484
r1263 87 88 0.62445
r1264 84 92 0.8856
r1265 84 90 0.624484
r1266 83 91 0.8856
r1267 83 87 0.62445
r1268 81 82 0.62445
r1269 81 729 0.62445
r1270 80 729 0.624484
r1271 79 80 0.62445
r1272 76 84 0.8856
r1273 76 82 0.624484
r1274 75 83 0.8856
r1275 75 79 0.62445
r1276 73 74 0.62445
r1277 73 728 0.62445
r1278 72 728 0.624484
r1279 71 72 0.62445
r1280 68 76 0.8856
r1281 68 74 0.624484
r1282 67 75 0.8856
r1283 67 71 0.62445
r1284 65 66 0.62445
r1285 65 727 0.62445
r1286 64 727 0.624484
r1287 63 64 0.62445
r1288 60 68 0.8856
r1289 60 66 0.624484
r1290 59 67 0.8856
r1291 59 63 0.62445
r1292 57 58 0.62445
r1293 57 726 0.62445
r1294 56 726 0.624484
r1295 55 56 0.62445
r1296 52 60 0.8856
r1297 52 58 0.624484
r1298 51 59 0.8856
r1299 51 55 0.62445
r1300 49 50 0.62445
r1301 49 725 0.62445
r1302 48 725 0.624484
r1303 47 48 0.62445
r1304 44 52 0.8856
r1305 44 50 0.624484
r1306 43 51 0.8856
r1307 43 47 0.62445
r1308 41 42 0.62445
r1309 41 724 0.62445
r1310 40 724 0.624484
r1311 39 40 0.62445
r1312 36 44 0.8856
r1313 36 42 0.624484
r1314 35 43 0.8856
r1315 35 39 0.62445
r1316 33 34 0.62445
r1317 33 723 0.62445